*SPEF "ieee 1481-1999"
*DESIGN "pipelined_mult"
*DATE "22:01:00 Wednesday January 14, 2026"
*VENDOR "The OpenROAD Project"
*PROGRAM "OpenROAD"
*VERSION "edf00dff99f6c40d67a30c0e22a8191c5d2ed9d6"
*DESIGN_FLOW "NAME_SCOPE LOCAL" "PIN_CAP NONE"
*DIVIDER /
*DELIMITER :
*BUS_DELIMITER []
*T_UNIT 1 NS
*C_UNIT 1 PF
*R_UNIT 1 OHM
*L_UNIT 1 HENRY

*NAME_MAP
*3 a[0]
*4 a[10]
*5 a[11]
*6 a[12]
*7 a[13]
*8 a[14]
*9 a[15]
*10 a[16]
*11 a[17]
*12 a[18]
*13 a[19]
*14 a[1]
*15 a[20]
*16 a[21]
*17 a[22]
*18 a[23]
*19 a[24]
*20 a[25]
*21 a[26]
*22 a[27]
*23 a[28]
*24 a[29]
*25 a[2]
*26 a[30]
*27 a[31]
*28 a[3]
*29 a[4]
*30 a[5]
*31 a[6]
*32 a[7]
*33 a[8]
*34 a[9]
*35 b[0]
*36 b[10]
*37 b[11]
*38 b[12]
*39 b[13]
*40 b[14]
*41 b[15]
*42 b[16]
*43 b[17]
*44 b[18]
*45 b[19]
*46 b[1]
*47 b[20]
*48 b[21]
*49 b[22]
*50 b[23]
*51 b[24]
*52 b[25]
*53 b[26]
*54 b[27]
*55 b[28]
*56 b[29]
*57 b[2]
*58 b[30]
*59 b[31]
*60 b[3]
*61 b[4]
*62 b[5]
*63 b[6]
*64 b[7]
*65 b[8]
*66 b[9]
*67 clk
*68 p[0]
*69 p[10]
*70 p[11]
*71 p[12]
*72 p[13]
*73 p[14]
*74 p[15]
*75 p[16]
*76 p[17]
*77 p[18]
*78 p[19]
*79 p[1]
*80 p[20]
*81 p[21]
*82 p[22]
*83 p[23]
*84 p[24]
*85 p[25]
*86 p[26]
*87 p[27]
*88 p[28]
*89 p[29]
*90 p[2]
*91 p[30]
*92 p[31]
*93 p[32]
*94 p[33]
*95 p[34]
*96 p[35]
*97 p[36]
*98 p[37]
*99 p[38]
*100 p[39]
*101 p[3]
*102 p[40]
*103 p[41]
*104 p[42]
*105 p[43]
*106 p[44]
*107 p[45]
*108 p[46]
*109 p[47]
*110 p[48]
*111 p[49]
*112 p[4]
*113 p[50]
*114 p[51]
*115 p[52]
*116 p[53]
*117 p[54]
*118 p[55]
*119 p[56]
*120 p[57]
*121 p[58]
*122 p[59]
*123 p[5]
*124 p[60]
*125 p[61]
*126 p[62]
*127 p[63]
*128 p[6]
*129 p[7]
*130 p[8]
*131 p[9]
*132 rst
*133 _0000_
*134 _0001_
*135 _0002_
*136 _0003_
*137 _0004_
*138 _0005_
*139 _0006_
*140 _0007_
*141 _0008_
*142 _0009_
*143 _0010_
*144 _0011_
*145 _0012_
*146 _0013_
*147 _0014_
*148 _0015_
*149 _0016_
*150 _0017_
*151 _0018_
*152 _0019_
*153 _0020_
*154 _0021_
*155 _0022_
*156 _0023_
*157 _0024_
*158 _0025_
*159 _0026_
*160 _0027_
*161 _0028_
*162 _0029_
*163 _0030_
*164 _0031_
*165 _0032_
*166 _0033_
*167 _0034_
*168 _0035_
*169 _0036_
*170 _0037_
*171 _0038_
*172 _0039_
*173 _0040_
*174 _0041_
*175 _0042_
*176 _0043_
*177 _0044_
*178 _0045_
*179 _0046_
*180 _0047_
*181 _0048_
*182 _0049_
*183 _0050_
*184 _0051_
*185 _0052_
*186 _0053_
*187 _0054_
*188 _0055_
*189 _0056_
*190 _0057_
*191 _0058_
*192 _0059_
*193 _0060_
*194 _0061_
*195 _0062_
*196 _0063_
*197 _0064_
*198 _0065_
*199 _0066_
*200 _0067_
*201 _0068_
*202 _0069_
*203 _0070_
*204 _0071_
*205 _0072_
*206 _0073_
*207 _0074_
*208 _0075_
*209 _0076_
*210 _0077_
*211 _0078_
*212 _0079_
*213 _0080_
*214 _0081_
*215 _0082_
*216 _0083_
*217 _0084_
*218 _0085_
*219 _0086_
*220 _0087_
*221 _0088_
*222 _0089_
*223 _0090_
*224 _0091_
*225 _0092_
*226 _0093_
*227 _0094_
*228 _0095_
*229 _0096_
*230 _0097_
*231 _0098_
*232 _0099_
*233 _0100_
*234 _0101_
*235 _0102_
*236 _0103_
*237 _0104_
*238 _0105_
*239 _0106_
*240 _0107_
*241 _0108_
*242 _0109_
*243 _0110_
*244 _0111_
*245 _0112_
*246 _0113_
*247 _0114_
*248 _0115_
*249 _0116_
*250 _0117_
*251 _0118_
*252 _0119_
*253 _0120_
*254 _0121_
*255 _0122_
*256 _0123_
*257 _0124_
*258 _0125_
*259 _0126_
*260 _0127_
*261 _0128_
*262 _0129_
*263 _0130_
*264 _0131_
*265 _0132_
*266 _0133_
*267 _0134_
*268 _0135_
*269 _0136_
*270 _0137_
*271 _0138_
*272 _0139_
*273 _0140_
*274 _0141_
*275 _0142_
*276 _0143_
*277 _0144_
*278 _0145_
*279 _0146_
*280 _0147_
*281 _0148_
*282 _0149_
*283 _0150_
*284 _0151_
*285 _0152_
*286 _0153_
*287 _0154_
*288 _0155_
*289 _0156_
*290 _0157_
*291 _0158_
*292 _0159_
*293 _0160_
*294 _0161_
*295 _0162_
*296 _0163_
*297 _0164_
*298 _0165_
*299 _0166_
*300 _0167_
*301 _0168_
*302 _0169_
*303 _0170_
*304 _0171_
*305 _0172_
*306 _0173_
*307 _0174_
*308 _0175_
*309 _0176_
*310 _0177_
*311 _0178_
*312 _0179_
*313 _0180_
*314 _0181_
*315 _0182_
*316 _0183_
*317 _0184_
*318 _0185_
*319 _0186_
*320 _0187_
*321 _0188_
*322 _0189_
*323 _0190_
*324 _0191_
*325 _0192_
*326 _0193_
*327 _0194_
*328 _0195_
*329 _0196_
*330 _0197_
*331 _0198_
*332 _0199_
*333 _0200_
*334 _0201_
*335 _0202_
*336 _0203_
*337 _0204_
*338 _0205_
*339 _0206_
*340 _0207_
*341 _0208_
*342 _0209_
*343 _0210_
*344 _0211_
*345 _0212_
*346 _0213_
*347 _0214_
*348 _0215_
*349 _0216_
*350 _0217_
*351 _0218_
*352 _0219_
*353 _0220_
*354 _0221_
*355 _0222_
*356 _0223_
*357 _0224_
*358 _0225_
*359 _0226_
*360 _0227_
*361 _0228_
*362 _0229_
*363 _0230_
*364 _0231_
*365 _0232_
*366 _0233_
*367 _0234_
*368 _0235_
*369 _0236_
*370 _0237_
*371 _0238_
*372 _0239_
*373 _0240_
*374 _0241_
*375 _0242_
*376 _0243_
*377 _0244_
*378 _0245_
*379 _0246_
*380 _0247_
*381 _0248_
*382 _0249_
*383 _0250_
*384 _0251_
*385 _0252_
*386 _0253_
*387 _0254_
*388 _0255_
*389 _0256_
*390 _0257_
*391 _0258_
*392 _0259_
*393 _0260_
*394 _0261_
*395 _0262_
*396 _0263_
*397 _0264_
*398 _0265_
*399 _0266_
*400 _0267_
*401 _0268_
*402 _0269_
*403 _0270_
*404 _0271_
*405 _0272_
*406 _0273_
*407 _0274_
*408 _0275_
*409 _0276_
*410 _0277_
*411 _0278_
*412 _0279_
*413 _0280_
*414 _0281_
*415 _0282_
*416 _0283_
*417 _0284_
*418 _0285_
*419 _0286_
*420 _0287_
*421 _0288_
*422 _0289_
*423 _0290_
*424 _0291_
*425 _0292_
*426 _0293_
*427 _0294_
*428 _0295_
*429 _0296_
*430 _0297_
*431 _0298_
*432 _0299_
*433 _0300_
*434 _0301_
*435 _0302_
*436 _0303_
*437 _0304_
*438 _0305_
*439 _0306_
*440 _0307_
*441 _0308_
*442 _0309_
*443 _0310_
*444 _0311_
*445 _0312_
*446 _0313_
*447 _0314_
*448 _0315_
*449 _0316_
*450 _0317_
*451 _0318_
*452 _0319_
*453 _0320_
*454 _0321_
*455 _0322_
*456 _0323_
*457 _0324_
*458 _0325_
*459 _0326_
*460 _0327_
*461 _0328_
*462 _0329_
*463 _0330_
*464 _0331_
*465 _0332_
*466 _0333_
*467 _0334_
*468 _0335_
*469 _0336_
*470 _0337_
*471 _0338_
*472 _0339_
*473 _0340_
*474 _0341_
*475 _0342_
*476 _0343_
*477 _0344_
*478 _0345_
*479 _0346_
*480 _0347_
*481 _0348_
*482 _0349_
*483 _0350_
*484 _0351_
*485 _0352_
*486 _0353_
*487 _0354_
*488 _0355_
*489 _0356_
*490 _0357_
*491 _0358_
*492 _0359_
*493 _0360_
*494 _0361_
*495 _0362_
*496 _0363_
*497 _0364_
*498 _0365_
*499 _0366_
*500 _0367_
*501 _0368_
*502 _0369_
*503 _0370_
*504 _0371_
*505 _0372_
*506 _0373_
*507 _0374_
*508 _0375_
*509 _0376_
*510 _0377_
*511 _0378_
*512 _0379_
*513 _0380_
*514 _0381_
*515 _0382_
*516 _0383_
*517 _0384_
*518 _0385_
*519 _0386_
*520 _0387_
*521 _0388_
*522 _0389_
*523 _0390_
*524 _0391_
*525 _0392_
*526 _0393_
*527 _0394_
*528 _0395_
*529 _0396_
*530 _0397_
*531 _0398_
*532 _0399_
*533 _0400_
*534 _0401_
*535 _0402_
*536 _0403_
*537 _0404_
*538 _0405_
*539 _0406_
*540 _0407_
*541 _0408_
*542 _0409_
*543 _0410_
*544 _0411_
*545 _0412_
*546 _0413_
*547 _0414_
*548 _0415_
*549 _0416_
*550 _0417_
*551 _0418_
*552 _0419_
*553 _0420_
*554 _0421_
*555 _0422_
*556 _0423_
*557 _0424_
*558 _0425_
*559 _0426_
*560 _0427_
*561 _0428_
*562 _0429_
*563 _0430_
*564 _0431_
*565 _0432_
*566 _0433_
*567 _0434_
*568 _0435_
*569 _0436_
*570 _0437_
*571 _0438_
*572 _0439_
*573 _0440_
*574 _0441_
*575 clk_regs
*576 clknet_0_clk
*577 clknet_0_clk_regs
*578 clknet_1_0__leaf_clk
*579 clknet_1_1__leaf_clk
*580 clknet_4_0_0_clk_regs
*581 clknet_4_10_0_clk_regs
*582 clknet_4_11_0_clk_regs
*583 clknet_4_12_0_clk_regs
*584 clknet_4_13_0_clk_regs
*585 clknet_4_14_0_clk_regs
*586 clknet_4_15_0_clk_regs
*587 clknet_4_1_0_clk_regs
*588 clknet_4_2_0_clk_regs
*589 clknet_4_3_0_clk_regs
*590 clknet_4_4_0_clk_regs
*591 clknet_4_5_0_clk_regs
*592 clknet_4_6_0_clk_regs
*593 clknet_4_7_0_clk_regs
*594 clknet_4_8_0_clk_regs
*595 clknet_4_9_0_clk_regs
*596 delaynet_0_clk
*597 mid_sum\[0\]
*598 mid_sum\[10\]
*599 mid_sum\[11\]
*600 mid_sum\[12\]
*601 mid_sum\[13\]
*602 mid_sum\[14\]
*603 mid_sum\[15\]
*604 mid_sum\[16\]
*605 mid_sum\[17\]
*606 mid_sum\[18\]
*607 mid_sum\[19\]
*608 mid_sum\[1\]
*609 mid_sum\[20\]
*610 mid_sum\[21\]
*611 mid_sum\[22\]
*612 mid_sum\[23\]
*613 mid_sum\[24\]
*614 mid_sum\[25\]
*615 mid_sum\[26\]
*616 mid_sum\[27\]
*617 mid_sum\[28\]
*618 mid_sum\[29\]
*619 mid_sum\[2\]
*620 mid_sum\[30\]
*621 mid_sum\[31\]
*622 mid_sum\[32\]
*623 mid_sum\[3\]
*624 mid_sum\[4\]
*625 mid_sum\[5\]
*626 mid_sum\[6\]
*627 mid_sum\[7\]
*628 mid_sum\[8\]
*629 mid_sum\[9\]
*630 net1
*631 net10
*632 net100
*633 net101
*634 net102
*635 net103
*636 net104
*637 net105
*638 net106
*639 net107
*640 net108
*641 net109
*642 net11
*643 net110
*644 net111
*645 net112
*646 net113
*647 net114
*648 net115
*649 net116
*650 net117
*651 net118
*652 net119
*653 net12
*654 net120
*655 net121
*656 net122
*657 net123
*658 net124
*659 net125
*660 net126
*661 net127
*662 net128
*663 net129
*664 net13
*665 net130
*666 net131
*667 net132
*668 net133
*669 net134
*670 net135
*671 net136
*672 net137
*673 net138
*674 net139
*675 net14
*676 net140
*677 net141
*678 net142
*679 net143
*680 net144
*681 net145
*682 net146
*683 net147
*684 net148
*685 net149
*686 net15
*687 net150
*688 net151
*689 net152
*690 net153
*691 net154
*692 net155
*693 net156
*694 net157
*695 net158
*696 net159
*697 net16
*698 net160
*699 net161
*700 net162
*701 net163
*702 net164
*703 net165
*704 net166
*705 net167
*706 net168
*707 net169
*708 net17
*709 net170
*710 net171
*711 net172
*712 net173
*713 net174
*714 net175
*715 net176
*716 net177
*717 net178
*718 net179
*719 net18
*720 net180
*721 net181
*722 net182
*723 net183
*724 net184
*725 net185
*726 net186
*727 net187
*728 net188
*729 net189
*730 net19
*731 net190
*732 net191
*733 net192
*734 net193
*735 net194
*736 net195
*737 net196
*738 net197
*739 net198
*740 net199
*741 net2
*742 net20
*743 net200
*744 net201
*745 net202
*746 net203
*747 net204
*748 net205
*749 net206
*750 net207
*751 net208
*752 net209
*753 net21
*754 net210
*755 net211
*756 net212
*757 net213
*758 net214
*759 net215
*760 net216
*761 net217
*762 net218
*763 net219
*764 net22
*765 net220
*766 net221
*767 net222
*768 net223
*769 net224
*770 net225
*771 net226
*772 net227
*773 net228
*774 net229
*775 net23
*776 net230
*777 net231
*778 net232
*779 net233
*780 net234
*781 net235
*782 net236
*783 net237
*784 net238
*785 net239
*786 net24
*787 net240
*788 net241
*789 net242
*790 net243
*791 net244
*792 net245
*793 net246
*794 net247
*795 net248
*796 net249
*797 net25
*798 net250
*799 net251
*800 net252
*801 net253
*802 net254
*803 net255
*804 net256
*805 net257
*806 net258
*807 net259
*808 net26
*809 net260
*810 net261
*811 net262
*812 net263
*813 net264
*814 net265
*815 net266
*816 net267
*817 net268
*818 net269
*819 net27
*820 net270
*821 net271
*822 net272
*823 net273
*824 net274
*825 net275
*826 net276
*827 net277
*828 net278
*829 net279
*830 net28
*831 net280
*832 net281
*833 net282
*834 net283
*835 net284
*836 net285
*837 net286
*838 net287
*839 net288
*840 net289
*841 net29
*842 net290
*843 net291
*844 net292
*845 net293
*846 net294
*847 net295
*848 net296
*849 net297
*850 net298
*851 net299
*852 net3
*853 net30
*854 net300
*855 net301
*856 net302
*857 net303
*858 net304
*859 net305
*860 net306
*861 net307
*862 net308
*863 net309
*864 net31
*865 net310
*866 net311
*867 net312
*868 net313
*869 net314
*870 net315
*871 net316
*872 net317
*873 net318
*874 net319
*875 net32
*876 net320
*877 net321
*878 net322
*879 net323
*880 net324
*881 net325
*882 net326
*883 net327
*884 net328
*885 net329
*886 net33
*887 net330
*888 net331
*889 net332
*890 net333
*891 net334
*892 net335
*893 net336
*894 net337
*895 net338
*896 net339
*897 net34
*898 net340
*899 net341
*900 net342
*901 net343
*902 net344
*903 net345
*904 net346
*905 net347
*906 net348
*907 net349
*908 net35
*909 net350
*910 net351
*911 net352
*912 net353
*913 net354
*914 net355
*915 net356
*916 net357
*917 net358
*918 net359
*919 net36
*920 net360
*921 net361
*922 net362
*923 net363
*924 net364
*925 net365
*926 net366
*927 net367
*928 net368
*929 net369
*930 net37
*931 net370
*932 net371
*933 net372
*934 net373
*935 net374
*936 net38
*937 net39
*938 net4
*939 net40
*940 net41
*941 net42
*942 net43
*943 net44
*944 net45
*945 net46
*946 net47
*947 net48
*948 net49
*949 net5
*950 net50
*951 net51
*952 net52
*953 net53
*954 net54
*955 net55
*956 net56
*957 net57
*958 net58
*959 net59
*960 net6
*961 net60
*962 net61
*963 net62
*964 net63
*965 net64
*966 net65
*967 net66
*968 net67
*969 net68
*970 net69
*971 net7
*972 net70
*973 net71
*974 net72
*975 net73
*976 net74
*977 net75
*978 net76
*979 net77
*980 net78
*981 net79
*982 net8
*983 net80
*984 net81
*985 net82
*986 net83
*987 net84
*988 net85
*989 net86
*990 net87
*991 net88
*992 net89
*993 net9
*994 net90
*995 net91
*996 net92
*997 net93
*998 net94
*999 net95
*1000 net96
*1001 net97
*1002 net98
*1003 net99
*1004 p_hh\[0\]
*1005 p_hh\[10\]
*1006 p_hh\[11\]
*1007 p_hh\[12\]
*1008 p_hh\[13\]
*1009 p_hh\[14\]
*1010 p_hh\[15\]
*1011 p_hh\[16\]
*1012 p_hh\[17\]
*1013 p_hh\[18\]
*1014 p_hh\[19\]
*1015 p_hh\[1\]
*1016 p_hh\[20\]
*1017 p_hh\[21\]
*1018 p_hh\[22\]
*1019 p_hh\[23\]
*1020 p_hh\[24\]
*1021 p_hh\[25\]
*1022 p_hh\[26\]
*1023 p_hh\[27\]
*1024 p_hh\[28\]
*1025 p_hh\[29\]
*1026 p_hh\[2\]
*1027 p_hh\[30\]
*1028 p_hh\[31\]
*1029 p_hh\[3\]
*1030 p_hh\[4\]
*1031 p_hh\[5\]
*1032 p_hh\[6\]
*1033 p_hh\[7\]
*1034 p_hh\[8\]
*1035 p_hh\[9\]
*1036 p_hh_pipe\[0\]
*1037 p_hh_pipe\[10\]
*1038 p_hh_pipe\[11\]
*1039 p_hh_pipe\[12\]
*1040 p_hh_pipe\[13\]
*1041 p_hh_pipe\[14\]
*1042 p_hh_pipe\[15\]
*1043 p_hh_pipe\[16\]
*1044 p_hh_pipe\[17\]
*1045 p_hh_pipe\[18\]
*1046 p_hh_pipe\[19\]
*1047 p_hh_pipe\[1\]
*1048 p_hh_pipe\[20\]
*1049 p_hh_pipe\[21\]
*1050 p_hh_pipe\[22\]
*1051 p_hh_pipe\[23\]
*1052 p_hh_pipe\[24\]
*1053 p_hh_pipe\[25\]
*1054 p_hh_pipe\[26\]
*1055 p_hh_pipe\[27\]
*1056 p_hh_pipe\[28\]
*1057 p_hh_pipe\[29\]
*1058 p_hh_pipe\[2\]
*1059 p_hh_pipe\[30\]
*1060 p_hh_pipe\[31\]
*1061 p_hh_pipe\[3\]
*1062 p_hh_pipe\[4\]
*1063 p_hh_pipe\[5\]
*1064 p_hh_pipe\[6\]
*1065 p_hh_pipe\[7\]
*1066 p_hh_pipe\[8\]
*1067 p_hh_pipe\[9\]
*1068 p_hl\[0\]
*1069 p_hl\[10\]
*1070 p_hl\[11\]
*1071 p_hl\[12\]
*1072 p_hl\[13\]
*1073 p_hl\[14\]
*1074 p_hl\[15\]
*1075 p_hl\[16\]
*1076 p_hl\[17\]
*1077 p_hl\[18\]
*1078 p_hl\[19\]
*1079 p_hl\[1\]
*1080 p_hl\[20\]
*1081 p_hl\[21\]
*1082 p_hl\[22\]
*1083 p_hl\[23\]
*1084 p_hl\[24\]
*1085 p_hl\[25\]
*1086 p_hl\[26\]
*1087 p_hl\[27\]
*1088 p_hl\[28\]
*1089 p_hl\[29\]
*1090 p_hl\[2\]
*1091 p_hl\[30\]
*1092 p_hl\[31\]
*1093 p_hl\[3\]
*1094 p_hl\[4\]
*1095 p_hl\[5\]
*1096 p_hl\[6\]
*1097 p_hl\[7\]
*1098 p_hl\[8\]
*1099 p_hl\[9\]
*1100 p_lh\[0\]
*1101 p_lh\[10\]
*1102 p_lh\[11\]
*1103 p_lh\[12\]
*1104 p_lh\[13\]
*1105 p_lh\[14\]
*1106 p_lh\[15\]
*1107 p_lh\[16\]
*1108 p_lh\[17\]
*1109 p_lh\[18\]
*1110 p_lh\[19\]
*1111 p_lh\[1\]
*1112 p_lh\[20\]
*1113 p_lh\[21\]
*1114 p_lh\[22\]
*1115 p_lh\[23\]
*1116 p_lh\[24\]
*1117 p_lh\[25\]
*1118 p_lh\[26\]
*1119 p_lh\[27\]
*1120 p_lh\[28\]
*1121 p_lh\[29\]
*1122 p_lh\[2\]
*1123 p_lh\[30\]
*1124 p_lh\[31\]
*1125 p_lh\[3\]
*1126 p_lh\[4\]
*1127 p_lh\[5\]
*1128 p_lh\[6\]
*1129 p_lh\[7\]
*1130 p_lh\[8\]
*1131 p_lh\[9\]
*1132 p_ll\[0\]
*1133 p_ll\[10\]
*1134 p_ll\[11\]
*1135 p_ll\[12\]
*1136 p_ll\[13\]
*1137 p_ll\[14\]
*1138 p_ll\[15\]
*1139 p_ll\[16\]
*1140 p_ll\[17\]
*1141 p_ll\[18\]
*1142 p_ll\[19\]
*1143 p_ll\[1\]
*1144 p_ll\[20\]
*1145 p_ll\[21\]
*1146 p_ll\[22\]
*1147 p_ll\[23\]
*1148 p_ll\[24\]
*1149 p_ll\[25\]
*1150 p_ll\[26\]
*1151 p_ll\[27\]
*1152 p_ll\[28\]
*1153 p_ll\[29\]
*1154 p_ll\[2\]
*1155 p_ll\[30\]
*1156 p_ll\[31\]
*1157 p_ll\[3\]
*1158 p_ll\[4\]
*1159 p_ll\[5\]
*1160 p_ll\[6\]
*1161 p_ll\[7\]
*1162 p_ll\[8\]
*1163 p_ll\[9\]
*1164 p_ll_pipe\[0\]
*1165 p_ll_pipe\[10\]
*1166 p_ll_pipe\[11\]
*1167 p_ll_pipe\[12\]
*1168 p_ll_pipe\[13\]
*1169 p_ll_pipe\[14\]
*1170 p_ll_pipe\[15\]
*1171 p_ll_pipe\[16\]
*1172 p_ll_pipe\[17\]
*1173 p_ll_pipe\[18\]
*1174 p_ll_pipe\[19\]
*1175 p_ll_pipe\[1\]
*1176 p_ll_pipe\[20\]
*1177 p_ll_pipe\[21\]
*1178 p_ll_pipe\[22\]
*1179 p_ll_pipe\[23\]
*1180 p_ll_pipe\[24\]
*1181 p_ll_pipe\[25\]
*1182 p_ll_pipe\[26\]
*1183 p_ll_pipe\[27\]
*1184 p_ll_pipe\[28\]
*1185 p_ll_pipe\[29\]
*1186 p_ll_pipe\[2\]
*1187 p_ll_pipe\[30\]
*1188 p_ll_pipe\[31\]
*1189 p_ll_pipe\[3\]
*1190 p_ll_pipe\[4\]
*1191 p_ll_pipe\[5\]
*1192 p_ll_pipe\[6\]
*1193 p_ll_pipe\[7\]
*1194 p_ll_pipe\[8\]
*1195 p_ll_pipe\[9\]
*1196 term_high\[32\]
*1197 term_high\[33\]
*1198 term_high\[34\]
*1199 term_high\[35\]
*1200 term_high\[36\]
*1201 term_high\[37\]
*1202 term_high\[38\]
*1203 term_high\[39\]
*1204 term_high\[40\]
*1205 term_high\[41\]
*1206 term_high\[42\]
*1207 term_high\[43\]
*1208 term_high\[44\]
*1209 term_high\[45\]
*1210 term_high\[46\]
*1211 term_high\[47\]
*1212 term_high\[48\]
*1213 term_high\[49\]
*1214 term_high\[50\]
*1215 term_high\[51\]
*1216 term_high\[52\]
*1217 term_high\[53\]
*1218 term_high\[54\]
*1219 term_high\[55\]
*1220 term_high\[56\]
*1221 term_high\[57\]
*1222 term_high\[58\]
*1223 term_high\[59\]
*1224 term_high\[60\]
*1225 term_high\[61\]
*1226 term_high\[62\]
*1227 term_high\[63\]
*1228 term_low\[0\]
*1229 term_low\[10\]
*1230 term_low\[11\]
*1231 term_low\[12\]
*1232 term_low\[13\]
*1233 term_low\[14\]
*1234 term_low\[15\]
*1235 term_low\[16\]
*1236 term_low\[17\]
*1237 term_low\[18\]
*1238 term_low\[19\]
*1239 term_low\[1\]
*1240 term_low\[20\]
*1241 term_low\[21\]
*1242 term_low\[22\]
*1243 term_low\[23\]
*1244 term_low\[24\]
*1245 term_low\[25\]
*1246 term_low\[26\]
*1247 term_low\[27\]
*1248 term_low\[28\]
*1249 term_low\[29\]
*1250 term_low\[2\]
*1251 term_low\[30\]
*1252 term_low\[31\]
*1253 term_low\[3\]
*1254 term_low\[4\]
*1255 term_low\[5\]
*1256 term_low\[6\]
*1257 term_low\[7\]
*1258 term_low\[8\]
*1259 term_low\[9\]
*1260 term_mid\[16\]
*1261 term_mid\[17\]
*1262 term_mid\[18\]
*1263 term_mid\[19\]
*1264 term_mid\[20\]
*1265 term_mid\[21\]
*1266 term_mid\[22\]
*1267 term_mid\[23\]
*1268 term_mid\[24\]
*1269 term_mid\[25\]
*1270 term_mid\[26\]
*1271 term_mid\[27\]
*1272 term_mid\[28\]
*1273 term_mid\[29\]
*1274 term_mid\[30\]
*1275 term_mid\[31\]
*1276 term_mid\[32\]
*1277 term_mid\[33\]
*1278 term_mid\[34\]
*1279 term_mid\[35\]
*1280 term_mid\[36\]
*1281 term_mid\[37\]
*1282 term_mid\[38\]
*1283 term_mid\[39\]
*1284 term_mid\[40\]
*1285 term_mid\[41\]
*1286 term_mid\[42\]
*1287 term_mid\[43\]
*1288 term_mid\[44\]
*1289 term_mid\[45\]
*1290 term_mid\[46\]
*1291 term_mid\[47\]
*1292 term_mid\[48\]
*1293 ANTENNA_1
*1294 ANTENNA_2
*1295 ANTENNA_3
*1296 ANTENNA_4
*1297 ANTENNA__0538__A
*1298 ANTENNA__0539__A
*1299 ANTENNA__0540__A
*1300 ANTENNA__0541__A
*1301 ANTENNA__0541__Y
*1302 ANTENNA__0542__A
*1303 ANTENNA__0542__B
*1304 ANTENNA__0543__A
*1305 ANTENNA__0543__B
*1306 ANTENNA__0544__A
*1307 ANTENNA__0544__B
*1308 ANTENNA__0545__A
*1309 ANTENNA__0545__B
*1310 ANTENNA__0546__A
*1311 ANTENNA__0546__B
*1312 ANTENNA__0547__A
*1313 ANTENNA__0547__B
*1314 ANTENNA__0548__A
*1315 ANTENNA__0548__B
*1316 ANTENNA__0549__A
*1317 ANTENNA__0549__B
*1318 ANTENNA__0550__A
*1319 ANTENNA__0550__B
*1320 ANTENNA__0551__A
*1321 ANTENNA__0551__B
*1322 ANTENNA__0552__A
*1323 ANTENNA__0552__B
*1324 ANTENNA__0552__X
*1325 ANTENNA__0553__A
*1326 ANTENNA__0553__B
*1327 ANTENNA__0553__X
*1328 ANTENNA__0554__A
*1329 ANTENNA__0554__B
*1330 ANTENNA__0554__X
*1331 ANTENNA__0555__A
*1332 ANTENNA__0555__B
*1333 ANTENNA__0556__A
*1334 ANTENNA__0556__B
*1335 ANTENNA__0557__A
*1336 ANTENNA__0557__B
*1337 ANTENNA__0557__X
*1338 ANTENNA__0558__A
*1339 ANTENNA__0558__B
*1340 ANTENNA__0559__A
*1341 ANTENNA__0559__B
*1342 ANTENNA__0560__A
*1343 ANTENNA__0560__B
*1344 ANTENNA__0561__A
*1345 ANTENNA__0561__B
*1346 ANTENNA__0562__A
*1347 ANTENNA__0563__A
*1348 ANTENNA__0564__A
*1349 ANTENNA__0565__A
*1350 ANTENNA__0566__A
*1351 ANTENNA__0566__B
*1352 ANTENNA__0567__A
*1353 ANTENNA__0568__A
*1354 ANTENNA__0569__A
*1355 ANTENNA__0569__B
*1356 ANTENNA__0569__X
*1357 ANTENNA__0570__A
*1358 ANTENNA__0570__B
*1359 ANTENNA__0570__X
*1360 ANTENNA__0571__A
*1361 ANTENNA__0571__B
*1362 ANTENNA__0572__A
*1363 ANTENNA__0572__B
*1364 ANTENNA__0573__A
*1365 ANTENNA__0573__B
*1366 ANTENNA__0574__A
*1367 ANTENNA__0574__X
*1368 ANTENNA__0575__A
*1369 ANTENNA__0575__X
*1370 ANTENNA__0576__A
*1371 ANTENNA__0576__B
*1372 ANTENNA__0577__A
*1373 ANTENNA__0577__B
*1374 ANTENNA__0578__A
*1375 ANTENNA__0578__X
*1376 ANTENNA__0579__A
*1377 ANTENNA__0580__A
*1378 ANTENNA__0580__B
*1379 ANTENNA__0580__X
*1380 ANTENNA__0581__A
*1381 ANTENNA__0581__X
*1382 ANTENNA__0582__A
*1383 ANTENNA__0582__X
*1384 ANTENNA__0583__A
*1385 ANTENNA__0583__X
*1386 ANTENNA__0584__A
*1387 ANTENNA__0584__X
*1388 ANTENNA__0585__A
*1389 ANTENNA__0585__X
*1390 ANTENNA__0586__A
*1391 ANTENNA__0587__A
*1392 ANTENNA__0588__A
*1393 ANTENNA__0589__A
*1394 ANTENNA__0590__A
*1395 ANTENNA__0590__X
*1396 ANTENNA__0591__A
*1397 ANTENNA__0591__X
*1398 ANTENNA__0592__A
*1399 ANTENNA__0593__A
*1400 ANTENNA__0593__B
*1401 ANTENNA__0594__A
*1402 ANTENNA__0595__A
*1403 ANTENNA__0596__A
*1404 ANTENNA__0597__A
*1405 ANTENNA__0598__A
*1406 ANTENNA__0599__A
*1407 ANTENNA__0600__A
*1408 ANTENNA__0600__X
*1409 ANTENNA__0601__A
*1410 ANTENNA__0601__B
*1411 ANTENNA__0601__X
*1412 ANTENNA__0602__A
*1413 ANTENNA__0602__X
*1414 ANTENNA__0603__A
*1415 ANTENNA__0604__A
*1416 ANTENNA__0605__A
*1417 ANTENNA__0606__A
*1418 ANTENNA__0607__A
*1419 ANTENNA__0608__A
*1420 ANTENNA__0609__A
*1421 ANTENNA__0610__A
*1422 ANTENNA__0611__A
*1423 ANTENNA__0612__A
*1424 ANTENNA__0613__A
*1425 ANTENNA__0614__A
*1426 ANTENNA__0615__A
*1427 ANTENNA__0616__A
*1428 ANTENNA__0617__A
*1429 ANTENNA__0618__A
*1430 ANTENNA__0619__A
*1431 ANTENNA__0619__X
*1432 ANTENNA__0620__A
*1433 ANTENNA__0620__X
*1434 ANTENNA__0621__A
*1435 ANTENNA__0621__X
*1436 ANTENNA__0622__A
*1437 ANTENNA__0623__A
*1438 ANTENNA__0624__A
*1439 ANTENNA__0625__A
*1440 ANTENNA__0626__A
*1441 ANTENNA__0627__A
*1442 ANTENNA__0628__A
*1443 ANTENNA__0628__X
*1444 ANTENNA__0629__A
*1445 ANTENNA__0629__X
*1446 ANTENNA__0630__A
*1447 ANTENNA__0630__X
*1448 ANTENNA__0631__A
*1449 ANTENNA__0631__X
*1450 ANTENNA__0632__A
*1451 ANTENNA__0632__X
*1452 ANTENNA__0633__A
*1453 ANTENNA__0634__A
*1454 ANTENNA__0635__A
*1455 ANTENNA__0635__X
*1456 ANTENNA__0636__A
*1457 ANTENNA__0637__A
*1458 ANTENNA__0638__A
*1459 ANTENNA__0639__A
*1460 ANTENNA__0639__X
*1461 ANTENNA__0640__A
*1462 ANTENNA__0640__X
*1463 ANTENNA__0641__A
*1464 ANTENNA__0641__X
*1465 ANTENNA__0642__A
*1466 ANTENNA__0642__X
*1467 ANTENNA__0643__A
*1468 ANTENNA__0643__X
*1469 ANTENNA__0644__A
*1470 ANTENNA__0644__X
*1471 ANTENNA__0645__A
*1472 ANTENNA__0645__X
*1473 ANTENNA__0646__A
*1474 ANTENNA__0646__X
*1475 ANTENNA__0647__A
*1476 ANTENNA__0647__X
*1477 ANTENNA__0648__A
*1478 ANTENNA__0648__X
*1479 ANTENNA__0649__A
*1480 ANTENNA__0649__X
*1481 ANTENNA__0650__A
*1482 ANTENNA__0650__X
*1483 ANTENNA__0651__A
*1484 ANTENNA__0651__X
*1485 ANTENNA__0652__A
*1486 ANTENNA__0652__B
*1487 ANTENNA__0652__X
*1488 ANTENNA__0653__A
*1489 ANTENNA__0653__B
*1490 ANTENNA__0653__X
*1491 ANTENNA__0654__A
*1492 ANTENNA__0654__X
*1493 ANTENNA__0655__A
*1494 ANTENNA__0656__A
*1495 ANTENNA__0656__B
*1496 ANTENNA__0657__A
*1497 ANTENNA__0657__X
*1498 ANTENNA__0658__A
*1499 ANTENNA__0658__B
*1500 ANTENNA__0659__A
*1501 ANTENNA__0660__A
*1502 ANTENNA__0661__A
*1503 ANTENNA__0661__X
*1504 ANTENNA__0662__A
*1505 ANTENNA__0663__A
*1506 ANTENNA__0664__A
*1507 ANTENNA__0665__A
*1508 ANTENNA__0666__A
*1509 ANTENNA__0667__A
*1510 ANTENNA__0668__A
*1511 ANTENNA__0669__A
*1512 ANTENNA__0669__X
*1513 ANTENNA__0670__A
*1514 ANTENNA__0670__X
*1515 ANTENNA__0671__A2
*1516 ANTENNA__0671__B1
*1517 ANTENNA__0672__A2
*1518 ANTENNA__0673__B
*1519 ANTENNA__0674__B
*1520 ANTENNA__0675__B2
*1521 ANTENNA__0676__A2
*1522 ANTENNA__0676__C1
*1523 ANTENNA__0677__A2
*1524 ANTENNA__0677__C1
*1525 ANTENNA__0678__B1
*1526 ANTENNA__0679__B
*1527 ANTENNA__0680__B
*1528 ANTENNA__0681__B
*1529 ANTENNA__0682__A2
*1530 ANTENNA__0684__A2
*1531 ANTENNA__0684__B2
*1532 ANTENNA__0685__A2
*1533 ANTENNA__0685__B2
*1534 ANTENNA__0686__B1
*1535 ANTENNA__0687__B
*1536 ANTENNA__0688__B
*1537 ANTENNA__0690__A2_N
*1538 ANTENNA__0691__B1
*1539 ANTENNA__0693__B
*1540 ANTENNA__0694__B
*1541 ANTENNA__0695__B
*1542 ANTENNA__0697__A2
*1543 ANTENNA__0700__A
*1544 ANTENNA__0701__B
*1545 ANTENNA__0702__B
*1546 ANTENNA__0705__A
*1547 ANTENNA__0707__A2
*1548 ANTENNA__0707__B2
*1549 ANTENNA__0708__A2
*1550 ANTENNA__0710__B
*1551 ANTENNA__0711__B
*1552 ANTENNA__0712__A_N
*1553 ANTENNA__0714__B1
*1554 ANTENNA__0717__B
*1555 ANTENNA__0718__B
*1556 ANTENNA__0721__B1
*1557 ANTENNA__0724__Y
*1558 ANTENNA__0725__A2
*1559 ANTENNA__0725__C1
*1560 ANTENNA__0727__Y
*1561 ANTENNA__0728__A
*1562 ANTENNA__0728__B
*1563 ANTENNA__0729__A
*1564 ANTENNA__0729__B
*1565 ANTENNA__0730__A
*1566 ANTENNA__0730__B
*1567 ANTENNA__0730__Y
*1568 ANTENNA__0731__A1
*1569 ANTENNA__0731__A2
*1570 ANTENNA__0731__B1
*1571 ANTENNA__0732__A1
*1572 ANTENNA__0732__B1
*1573 ANTENNA__0733__A2
*1574 ANTENNA__0734__A1
*1575 ANTENNA__0734__A2
*1576 ANTENNA__0735__B
*1577 ANTENNA__0736__B
*1578 ANTENNA__0737__A_N
*1579 ANTENNA__0739__B1
*1580 ANTENNA__0740__X
*1581 ANTENNA__0741__A1
*1582 ANTENNA__0741__A2
*1583 ANTENNA__0741__B2
*1584 ANTENNA__0744__B
*1585 ANTENNA__0745__B
*1586 ANTENNA__0746__A_N
*1587 ANTENNA__0747__B
*1588 ANTENNA__0748__B1
*1589 ANTENNA__0749__X
*1590 ANTENNA__0750__B
*1591 ANTENNA__0751__B
*1592 ANTENNA__0752__B
*1593 ANTENNA__0756__B1
*1594 ANTENNA__0760__A
*1595 ANTENNA__0765__B
*1596 ANTENNA__0766__B
*1597 ANTENNA__0767__A_N
*1598 ANTENNA__0769__B1
*1599 ANTENNA__0772__B
*1600 ANTENNA__0773__B
*1601 ANTENNA__0774__A_N
*1602 ANTENNA__0776__B1
*1603 ANTENNA__0777__X
*1604 ANTENNA__0778__B
*1605 ANTENNA__0779__B
*1606 ANTENNA__0781__A2
*1607 ANTENNA__0781__C1
*1608 ANTENNA__0784__B1
*1609 ANTENNA__0785__X
*1610 ANTENNA__0786__A
*1611 ANTENNA__0786__B
*1612 ANTENNA__0788__A
*1613 ANTENNA__0788__B
*1614 ANTENNA__0789__A
*1615 ANTENNA__0789__B
*1616 ANTENNA__0793__B1
*1617 ANTENNA__0794__Y
*1618 ANTENNA__0795__A
*1619 ANTENNA__0795__B
*1620 ANTENNA__0796__A
*1621 ANTENNA__0796__B
*1622 ANTENNA__0802__A
*1623 ANTENNA__0804__A1
*1624 ANTENNA__0804__A2
*1625 ANTENNA__0812__B1
*1626 ANTENNA__0813__X
*1627 ANTENNA__0814__A
*1628 ANTENNA__0814__B
*1629 ANTENNA__0815__A
*1630 ANTENNA__0815__B
*1631 ANTENNA__0819__A
*1632 ANTENNA__0820__A
*1633 ANTENNA__0820__B
*1634 ANTENNA__0821__A
*1635 ANTENNA__0821__B
*1636 ANTENNA__0823__A1
*1637 ANTENNA__0823__A2
*1638 ANTENNA__0823__B1
*1639 ANTENNA__0823__B2
*1640 ANTENNA__0824__A1
*1641 ANTENNA__0824__A2
*1642 ANTENNA__0828__B1
*1643 ANTENNA__0829__X
*1644 ANTENNA__0830__A
*1645 ANTENNA__0830__B
*1646 ANTENNA__0831__A
*1647 ANTENNA__0831__B
*1648 ANTENNA__0832__A
*1649 ANTENNA__0832__B
*1650 ANTENNA__0835__B1
*1651 ANTENNA__0836__X
*1652 ANTENNA__0837__A
*1653 ANTENNA__0837__B
*1654 ANTENNA__0838__A
*1655 ANTENNA__0838__B
*1656 ANTENNA__0840__A1
*1657 ANTENNA__0840__A2
*1658 ANTENNA__0841__A1
*1659 ANTENNA__0841__A2
*1660 ANTENNA__0845__B1
*1661 ANTENNA__0847__A
*1662 ANTENNA__0847__B
*1663 ANTENNA__0848__A
*1664 ANTENNA__0848__B
*1665 ANTENNA__0852__B1
*1666 ANTENNA__0853__Y
*1667 ANTENNA__0854__A
*1668 ANTENNA__0854__B
*1669 ANTENNA__0855__A
*1670 ANTENNA__0855__B
*1671 ANTENNA__0857__A1
*1672 ANTENNA__0857__A2
*1673 ANTENNA__0862__A
*1674 ANTENNA__0863__A
*1675 ANTENNA__0863__B
*1676 ANTENNA__0864__A
*1677 ANTENNA__0864__B
*1678 ANTENNA__0868__A
*1679 ANTENNA__0869__A
*1680 ANTENNA__0869__B
*1681 ANTENNA__0870__A
*1682 ANTENNA__0870__B
*1683 ANTENNA__0883__B1
*1684 ANTENNA__0885__A
*1685 ANTENNA__0885__B
*1686 ANTENNA__0888__A
*1687 ANTENNA__0889__A
*1688 ANTENNA__0889__B
*1689 ANTENNA__0890__A1
*1690 ANTENNA__0890__A2
*1691 ANTENNA__0890__B1
*1692 ANTENNA__0890__B2
*1693 ANTENNA__0891__A1
*1694 ANTENNA__0891__A2
*1695 ANTENNA__0896__A
*1696 ANTENNA__0897__A
*1697 ANTENNA__0897__B
*1698 ANTENNA__0898__A
*1699 ANTENNA__0898__B
*1700 ANTENNA__0900__A1
*1701 ANTENNA__0900__A2
*1702 ANTENNA__0901__A1_N
*1703 ANTENNA__0901__A2_N
*1704 ANTENNA__0902__B1
*1705 ANTENNA__0904__A
*1706 ANTENNA__0904__B
*1707 ANTENNA__0905__A
*1708 ANTENNA__0905__B
*1709 ANTENNA__0910__A1
*1710 ANTENNA__0910__A2
*1711 ANTENNA__0911__A1
*1712 ANTENNA__0911__A2
*1713 ANTENNA__0911__B1
*1714 ANTENNA__0911__C1
*1715 ANTENNA__0915__B1
*1716 ANTENNA__0916__X
*1717 ANTENNA__0917__A
*1718 ANTENNA__0917__B
*1719 ANTENNA__0919__B1
*1720 ANTENNA__0924__A1
*1721 ANTENNA__0924__A2
*1722 ANTENNA__0924__B1
*1723 ANTENNA__0925__A1
*1724 ANTENNA__0925__A2
*1725 ANTENNA__0925__B1
*1726 ANTENNA__0926__A1
*1727 ANTENNA__0926__A2
*1728 ANTENNA__0926__B1
*1729 ANTENNA__0927__A
*1730 ANTENNA__0927__B
*1731 ANTENNA__0928__A
*1732 ANTENNA__0928__B
*1733 ANTENNA__0929__A_N
*1734 ANTENNA__0929__B
*1735 ANTENNA__0930__A_N
*1736 ANTENNA__0930__B
*1737 ANTENNA__0931__A_N
*1738 ANTENNA__0931__B
*1739 ANTENNA__0932__A_N
*1740 ANTENNA__0932__B
*1741 ANTENNA__0935__B1
*1742 ANTENNA__0937__A
*1743 ANTENNA__0937__B
*1744 ANTENNA__0938__A
*1745 ANTENNA__0938__B
*1746 ANTENNA__0939__A
*1747 ANTENNA__0939__B
*1748 ANTENNA__0944__A
*1749 ANTENNA__0946__B1
*1750 ANTENNA__0947__A
*1751 ANTENNA__0947__X
*1752 ANTENNA__0948__A
*1753 ANTENNA__0948__X
*1754 ANTENNA__0949__A
*1755 ANTENNA__0950__A
*1756 ANTENNA__0951__A
*1757 ANTENNA__0951__X
*1758 ANTENNA__0952__A
*1759 ANTENNA__0952__X
*1760 ANTENNA__0953__A
*1761 ANTENNA__0954__A
*1762 ANTENNA__0954__B
*1763 ANTENNA__0955__A
*1764 ANTENNA__0955__B
*1765 ANTENNA__0956__A
*1766 ANTENNA__0956__B
*1767 ANTENNA__0957__A
*1768 ANTENNA__0957__B
*1769 ANTENNA__0958__A
*1770 ANTENNA__0958__B
*1771 ANTENNA__0959__A
*1772 ANTENNA__0959__B
*1773 ANTENNA__0960__A
*1774 ANTENNA__0960__B
*1775 ANTENNA__0961__A
*1776 ANTENNA__0961__B
*1777 ANTENNA__0962__A
*1778 ANTENNA__0962__B
*1779 ANTENNA__0963__A
*1780 ANTENNA__0963__B
*1781 ANTENNA__0964__A
*1782 ANTENNA__0964__B
*1783 ANTENNA__0965__A
*1784 ANTENNA__0965__B
*1785 ANTENNA__0965__X
*1786 ANTENNA__0966__A
*1787 ANTENNA__0966__B
*1788 ANTENNA__0967__A
*1789 ANTENNA__0967__B
*1790 ANTENNA__0968__A
*1791 ANTENNA__0968__B
*1792 ANTENNA__0969__A
*1793 ANTENNA__0969__B
*1794 ANTENNA__0970__A
*1795 ANTENNA__0970__B
*1796 ANTENNA__0971__A
*1797 ANTENNA__0971__B
*1798 ANTENNA__0972__A
*1799 ANTENNA__0972__B
*1800 ANTENNA__0973__A
*1801 ANTENNA__0973__B
*1802 ANTENNA__0974__A
*1803 ANTENNA__0974__B
*1804 ANTENNA__0975__A
*1805 ANTENNA__0975__B