* NGSPICE file created from pipelined_mult.ext - technology: sky130A

* Black-box entry subcircuit for sky130_ef_sc_hd__decap_12 abstract view
.subckt sky130_ef_sc_hd__decap_12 VPWR VGND VPB VNB
.ends

* Black-box entry subcircuit for sky130_fd_sc_hd__fill_1 abstract view
.subckt sky130_fd_sc_hd__fill_1 VGND VNB VPB VPWR
.ends

* Black-box entry subcircuit for sky130_fd_sc_hd__tapvpwrvgnd_1 abstract view
.subckt sky130_fd_sc_hd__tapvpwrvgnd_1 VGND VPWR
.ends

* Black-box entry subcircuit for sky130_fd_sc_hd__diode_2 abstract view
.subckt sky130_fd_sc_hd__diode_2 DIODE VGND VNB VPB VPWR
.ends

* Black-box entry subcircuit for sky130_fd_sc_hd__decap_6 abstract view
.subckt sky130_fd_sc_hd__decap_6 VGND VNB VPB VPWR
.ends

* Black-box entry subcircuit for sky130_fd_sc_hd__decap_8 abstract view
.subckt sky130_fd_sc_hd__decap_8 VGND VNB VPB VPWR
.ends

* Black-box entry subcircuit for sky130_fd_sc_hd__decap_3 abstract view
.subckt sky130_fd_sc_hd__decap_3 VGND VNB VPB VPWR
.ends

* Black-box entry subcircuit for sky130_fd_sc_hd__conb_1 abstract view
.subckt sky130_fd_sc_hd__conb_1 VGND VNB VPB VPWR HI LO
.ends

* Black-box entry subcircuit for sky130_fd_sc_hd__fill_2 abstract view
.subckt sky130_fd_sc_hd__fill_2 VGND VNB VPB VPWR
.ends

* Black-box entry subcircuit for sky130_fd_sc_hd__decap_4 abstract view
.subckt sky130_fd_sc_hd__decap_4 VGND VNB VPB VPWR
.ends

* Black-box entry subcircuit for sky130_fd_sc_hd__dfxtp_1 abstract view
.subckt sky130_fd_sc_hd__dfxtp_1 CLK D VGND VNB VPB VPWR Q
.ends

* Black-box entry subcircuit for sky130_fd_sc_hd__o21a_1 abstract view
.subckt sky130_fd_sc_hd__o21a_1 A1 A2 B1 VGND VNB VPB VPWR X
.ends

* Black-box entry subcircuit for sky130_fd_sc_hd__and2_1 abstract view
.subckt sky130_fd_sc_hd__and2_1 A B VGND VNB VPB VPWR X
.ends

* Black-box entry subcircuit for sky130_fd_sc_hd__nor2_1 abstract view
.subckt sky130_fd_sc_hd__nor2_1 A B VGND VNB VPB VPWR Y
.ends

* Black-box entry subcircuit for sky130_fd_sc_hd__nor2_2 abstract view
.subckt sky130_fd_sc_hd__nor2_2 A B VGND VNB VPB VPWR Y
.ends

* Black-box entry subcircuit for sky130_fd_sc_hd__a22oi_4 abstract view
.subckt sky130_fd_sc_hd__a22oi_4 A1 A2 B1 B2 VGND VNB VPB VPWR Y
.ends

* Black-box entry subcircuit for sky130_fd_sc_hd__buf_1 abstract view
.subckt sky130_fd_sc_hd__buf_1 A VGND VNB VPB VPWR X
.ends

* Black-box entry subcircuit for sky130_fd_sc_hd__buf_4 abstract view
.subckt sky130_fd_sc_hd__buf_4 A VGND VNB VPB VPWR X
.ends

* Black-box entry subcircuit for sky130_fd_sc_hd__clkbuf_8 abstract view
.subckt sky130_fd_sc_hd__clkbuf_8 A VGND VNB VPB VPWR X
.ends

* Black-box entry subcircuit for sky130_fd_sc_hd__nand2_1 abstract view
.subckt sky130_fd_sc_hd__nand2_1 A B VGND VNB VPB VPWR Y
.ends

* Black-box entry subcircuit for sky130_fd_sc_hd__nand2b_1 abstract view
.subckt sky130_fd_sc_hd__nand2b_1 A_N B VGND VNB VPB VPWR Y
.ends

* Black-box entry subcircuit for sky130_fd_sc_hd__dlygate4sd3_1 abstract view
.subckt sky130_fd_sc_hd__dlygate4sd3_1 A VGND VNB VPB VPWR X
.ends

* Black-box entry subcircuit for sky130_fd_sc_hd__buf_2 abstract view
.subckt sky130_fd_sc_hd__buf_2 A VGND VNB VPB VPWR X
.ends

* Black-box entry subcircuit for sky130_fd_sc_hd__o21ai_1 abstract view
.subckt sky130_fd_sc_hd__o21ai_1 A1 A2 B1 VGND VNB VPB VPWR Y
.ends

* Black-box entry subcircuit for sky130_fd_sc_hd__clkbuf_2 abstract view
.subckt sky130_fd_sc_hd__clkbuf_2 A VGND VNB VPB VPWR X
.ends

* Black-box entry subcircuit for sky130_fd_sc_hd__a21oi_2 abstract view
.subckt sky130_fd_sc_hd__a21oi_2 A1 A2 B1 VGND VNB VPB VPWR Y
.ends

* Black-box entry subcircuit for sky130_fd_sc_hd__xor2_2 abstract view
.subckt sky130_fd_sc_hd__xor2_2 A B VGND VNB VPB VPWR X
.ends

* Black-box entry subcircuit for sky130_fd_sc_hd__and2_2 abstract view
.subckt sky130_fd_sc_hd__and2_2 A B VGND VNB VPB VPWR X
.ends

* Black-box entry subcircuit for mult_16x16 abstract view
.subckt mult_16x16 VGND VPWR clk in1[0] in1[10] in1[11] in1[12] in1[13] in1[14] in1[15]
+ in1[1] in1[2] in1[3] in1[4] in1[5] in1[6] in1[7] in1[8] in1[9] in2[0] in2[10] in2[11]
+ in2[12] in2[13] in2[14] in2[15] in2[1] in2[2] in2[3] in2[4] in2[5] in2[6] in2[7]
+ in2[8] in2[9] out[0] out[10] out[11] out[12] out[13] out[14] out[15] out[16] out[17]
+ out[18] out[19] out[1] out[20] out[21] out[22] out[23] out[24] out[25] out[26] out[27]
+ out[28] out[29] out[2] out[30] out[31] out[3] out[4] out[5] out[6] out[7] out[8]
+ out[9] rst
.ends

* Black-box entry subcircuit for sky130_fd_sc_hd__a21oi_1 abstract view
.subckt sky130_fd_sc_hd__a21oi_1 A1 A2 B1 VGND VNB VPB VPWR Y
.ends

* Black-box entry subcircuit for sky130_fd_sc_hd__clkbuf_16 abstract view
.subckt sky130_fd_sc_hd__clkbuf_16 A VGND VNB VPB VPWR X
.ends

* Black-box entry subcircuit for sky130_fd_sc_hd__clkbuf_1 abstract view
.subckt sky130_fd_sc_hd__clkbuf_1 A VGND VNB VPB VPWR X
.ends

* Black-box entry subcircuit for sky130_fd_sc_hd__buf_6 abstract view
.subckt sky130_fd_sc_hd__buf_6 A VGND VNB VPB VPWR X
.ends

* Black-box entry subcircuit for sky130_fd_sc_hd__a21o_1 abstract view
.subckt sky130_fd_sc_hd__a21o_1 A1 A2 B1 VGND VNB VPB VPWR X
.ends

* Black-box entry subcircuit for sky130_fd_sc_hd__and3_1 abstract view
.subckt sky130_fd_sc_hd__and3_1 A B C VGND VNB VPB VPWR X
.ends

* Black-box entry subcircuit for sky130_fd_sc_hd__nor3_1 abstract view
.subckt sky130_fd_sc_hd__nor3_1 A B C VGND VNB VPB VPWR Y
.ends

* Black-box entry subcircuit for sky130_fd_sc_hd__dfxtp_2 abstract view
.subckt sky130_fd_sc_hd__dfxtp_2 CLK D VGND VNB VPB VPWR Q
.ends

* Black-box entry subcircuit for sky130_fd_sc_hd__o21ba_1 abstract view
.subckt sky130_fd_sc_hd__o21ba_1 A1 A2 B1_N VGND VNB VPB VPWR X
.ends

* Black-box entry subcircuit for sky130_fd_sc_hd__clkinv_16 abstract view
.subckt sky130_fd_sc_hd__clkinv_16 A VGND VNB VPB VPWR Y
.ends

* Black-box entry subcircuit for sky130_fd_sc_hd__nand4_2 abstract view
.subckt sky130_fd_sc_hd__nand4_2 A B C D VGND VNB VPB VPWR Y
.ends

* Black-box entry subcircuit for sky130_fd_sc_hd__or2_1 abstract view
.subckt sky130_fd_sc_hd__or2_1 A B VGND VNB VPB VPWR X
.ends

* Black-box entry subcircuit for sky130_fd_sc_hd__or4bb_1 abstract view
.subckt sky130_fd_sc_hd__or4bb_1 A B C_N D_N VGND VNB VPB VPWR X
.ends

* Black-box entry subcircuit for sky130_fd_sc_hd__clkinv_8 abstract view
.subckt sky130_fd_sc_hd__clkinv_8 A VGND VNB VPB VPWR Y
.ends

* Black-box entry subcircuit for sky130_fd_sc_hd__and2b_1 abstract view
.subckt sky130_fd_sc_hd__and2b_1 A_N B VGND VNB VPB VPWR X
.ends

* Black-box entry subcircuit for sky130_fd_sc_hd__a31o_1 abstract view
.subckt sky130_fd_sc_hd__a31o_1 A1 A2 A3 B1 VGND VNB VPB VPWR X
.ends

* Black-box entry subcircuit for sky130_fd_sc_hd__inv_6 abstract view
.subckt sky130_fd_sc_hd__inv_6 A VGND VNB VPB VPWR Y
.ends

* Black-box entry subcircuit for sky130_fd_sc_hd__xnor2_4 abstract view
.subckt sky130_fd_sc_hd__xnor2_4 A B VGND VNB VPB VPWR Y
.ends

* Black-box entry subcircuit for sky130_fd_sc_hd__o2bb2ai_1 abstract view
.subckt sky130_fd_sc_hd__o2bb2ai_1 A1_N A2_N B1 B2 VGND VNB VPB VPWR Y
.ends

* Black-box entry subcircuit for sky130_fd_sc_hd__nand2_2 abstract view
.subckt sky130_fd_sc_hd__nand2_2 A B VGND VNB VPB VPWR Y
.ends

* Black-box entry subcircuit for sky130_fd_sc_hd__or3b_1 abstract view
.subckt sky130_fd_sc_hd__or3b_1 A B C_N VGND VNB VPB VPWR X
.ends

* Black-box entry subcircuit for sky130_fd_sc_hd__o21bai_2 abstract view
.subckt sky130_fd_sc_hd__o21bai_2 A1 A2 B1_N VGND VNB VPB VPWR Y
.ends

* Black-box entry subcircuit for sky130_fd_sc_hd__nor4_1 abstract view
.subckt sky130_fd_sc_hd__nor4_1 A B C D VGND VNB VPB VPWR Y
.ends

* Black-box entry subcircuit for sky130_fd_sc_hd__o21bai_1 abstract view
.subckt sky130_fd_sc_hd__o21bai_1 A1 A2 B1_N VGND VNB VPB VPWR Y
.ends

* Black-box entry subcircuit for sky130_fd_sc_hd__a22o_1 abstract view
.subckt sky130_fd_sc_hd__a22o_1 A1 A2 B1 B2 VGND VNB VPB VPWR X
.ends

* Black-box entry subcircuit for add3x64 abstract view
.subckt add3x64 VGND VPWR clk in1[0] in1[10] in1[11] in1[12] in1[13] in1[14] in1[15]
+ in1[16] in1[17] in1[18] in1[19] in1[1] in1[20] in1[21] in1[22] in1[23] in1[24] in1[25]
+ in1[26] in1[27] in1[28] in1[29] in1[2] in1[30] in1[31] in1[32] in1[33] in1[34] in1[35]
+ in1[36] in1[37] in1[38] in1[39] in1[3] in1[40] in1[41] in1[42] in1[43] in1[44] in1[45]
+ in1[46] in1[47] in1[48] in1[49] in1[4] in1[50] in1[51] in1[52] in1[53] in1[54] in1[55]
+ in1[56] in1[57] in1[58] in1[59] in1[5] in1[60] in1[61] in1[62] in1[63] in1[6] in1[7]
+ in1[8] in1[9] in2[0] in2[10] in2[11] in2[12] in2[13] in2[14] in2[15] in2[16] in2[17]
+ in2[18] in2[19] in2[1] in2[20] in2[21] in2[22] in2[23] in2[24] in2[25] in2[26] in2[27]
+ in2[28] in2[29] in2[2] in2[30] in2[31] in2[32] in2[33] in2[34] in2[35] in2[36] in2[37]
+ in2[38] in2[39] in2[3] in2[40] in2[41] in2[42] in2[43] in2[44] in2[45] in2[46] in2[47]
+ in2[48] in2[49] in2[4] in2[50] in2[51] in2[52] in2[53] in2[54] in2[55] in2[56] in2[57]
+ in2[58] in2[59] in2[5] in2[60] in2[61] in2[62] in2[63] in2[6] in2[7] in2[8] in2[9]
+ in3[0] in3[10] in3[11] in3[12] in3[13] in3[14] in3[15] in3[16] in3[17] in3[18] in3[19]
+ in3[1] in3[20] in3[21] in3[22] in3[23] in3[24] in3[25] in3[26] in3[27] in3[28] in3[29]
+ in3[2] in3[30] in3[31] in3[32] in3[33] in3[34] in3[35] in3[36] in3[37] in3[38] in3[39]
+ in3[3] in3[40] in3[41] in3[42] in3[43] in3[44] in3[45] in3[46] in3[47] in3[48] in3[49]
+ in3[4] in3[50] in3[51] in3[52] in3[53] in3[54] in3[55] in3[56] in3[57] in3[58] in3[59]
+ in3[5] in3[60] in3[61] in3[62] in3[63] in3[6] in3[7] in3[8] in3[9] out[0] out[10]
+ out[11] out[12] out[13] out[14] out[15] out[16] out[17] out[18] out[19] out[1] out[20]
+ out[21] out[22] out[23] out[24] out[25] out[26] out[27] out[28] out[29] out[2] out[30]
+ out[31] out[32] out[33] out[34] out[35] out[36] out[37] out[38] out[39] out[3] out[40]
+ out[41] out[42] out[43] out[44] out[45] out[46] out[47] out[48] out[49] out[4] out[50]
+ out[51] out[52] out[53] out[54] out[55] out[56] out[57] out[58] out[59] out[5] out[60]
+ out[61] out[62] out[63] out[6] out[7] out[8] out[9] rst
.ends

* Black-box entry subcircuit for sky130_fd_sc_hd__inv_2 abstract view
.subckt sky130_fd_sc_hd__inv_2 A VGND VNB VPB VPWR Y
.ends

* Black-box entry subcircuit for sky130_fd_sc_hd__inv_8 abstract view
.subckt sky130_fd_sc_hd__inv_8 A VGND VNB VPB VPWR Y
.ends

* Black-box entry subcircuit for sky130_fd_sc_hd__a22oi_2 abstract view
.subckt sky130_fd_sc_hd__a22oi_2 A1 A2 B1 B2 VGND VNB VPB VPWR Y
.ends

* Black-box entry subcircuit for sky130_fd_sc_hd__o211ai_1 abstract view
.subckt sky130_fd_sc_hd__o211ai_1 A1 A2 B1 C1 VGND VNB VPB VPWR Y
.ends

* Black-box entry subcircuit for sky130_fd_sc_hd__nand4_1 abstract view
.subckt sky130_fd_sc_hd__nand4_1 A B C D VGND VNB VPB VPWR Y
.ends

* Black-box entry subcircuit for sky130_fd_sc_hd__nand4b_1 abstract view
.subckt sky130_fd_sc_hd__nand4b_1 A_N B C D VGND VNB VPB VPWR Y
.ends

* Black-box entry subcircuit for sky130_fd_sc_hd__or3_1 abstract view
.subckt sky130_fd_sc_hd__or3_1 A B C VGND VNB VPB VPWR X
.ends

* Black-box entry subcircuit for sky130_fd_sc_hd__o31a_2 abstract view
.subckt sky130_fd_sc_hd__o31a_2 A1 A2 A3 B1 VGND VNB VPB VPWR X
.ends

* Black-box entry subcircuit for sky130_fd_sc_hd__a2bb2o_1 abstract view
.subckt sky130_fd_sc_hd__a2bb2o_1 A1_N A2_N B1 B2 VGND VNB VPB VPWR X
.ends

* Black-box entry subcircuit for sky130_fd_sc_hd__o31ai_1 abstract view
.subckt sky130_fd_sc_hd__o31ai_1 A1 A2 A3 B1 VGND VNB VPB VPWR Y
.ends

* Black-box entry subcircuit for sky130_fd_sc_hd__clkbuf_4 abstract view
.subckt sky130_fd_sc_hd__clkbuf_4 A VGND VNB VPB VPWR X
.ends

* Black-box entry subcircuit for sky130_fd_sc_hd__o31a_1 abstract view
.subckt sky130_fd_sc_hd__o31a_1 A1 A2 A3 B1 VGND VNB VPB VPWR X
.ends

* Black-box entry subcircuit for sky130_fd_sc_hd__o211ai_4 abstract view
.subckt sky130_fd_sc_hd__o211ai_4 A1 A2 B1 C1 VGND VNB VPB VPWR Y
.ends

* Black-box entry subcircuit for sky130_fd_sc_hd__o211a_1 abstract view
.subckt sky130_fd_sc_hd__o211a_1 A1 A2 B1 C1 VGND VNB VPB VPWR X
.ends

* Black-box entry subcircuit for sky130_fd_sc_hd__o2bb2a_1 abstract view
.subckt sky130_fd_sc_hd__o2bb2a_1 A1_N A2_N B1 B2 VGND VNB VPB VPWR X
.ends

* Black-box entry subcircuit for sky130_fd_sc_hd__a31oi_1 abstract view
.subckt sky130_fd_sc_hd__a31oi_1 A1 A2 A3 B1 VGND VNB VPB VPWR Y
.ends

* Black-box entry subcircuit for sky130_fd_sc_hd__a21bo_1 abstract view
.subckt sky130_fd_sc_hd__a21bo_1 A1 A2 B1_N VGND VNB VPB VPWR X
.ends

* Black-box entry subcircuit for sky130_fd_sc_hd__buf_12 abstract view
.subckt sky130_fd_sc_hd__buf_12 A VGND VNB VPB VPWR X
.ends

* Black-box entry subcircuit for sky130_fd_sc_hd__a31oi_4 abstract view
.subckt sky130_fd_sc_hd__a31oi_4 A1 A2 A3 B1 VGND VNB VPB VPWR Y
.ends

* Black-box entry subcircuit for sky130_fd_sc_hd__xor2_1 abstract view
.subckt sky130_fd_sc_hd__xor2_1 A B VGND VNB VPB VPWR X
.ends

* Black-box entry subcircuit for sky130_fd_sc_hd__a211oi_1 abstract view
.subckt sky130_fd_sc_hd__a211oi_1 A1 A2 B1 C1 VGND VNB VPB VPWR Y
.ends

* Black-box entry subcircuit for sky130_fd_sc_hd__a22oi_1 abstract view
.subckt sky130_fd_sc_hd__a22oi_1 A1 A2 B1 B2 VGND VNB VPB VPWR Y
.ends

* Black-box entry subcircuit for sky130_fd_sc_hd__nand4_4 abstract view
.subckt sky130_fd_sc_hd__nand4_4 A B C D VGND VNB VPB VPWR Y
.ends

* Black-box entry subcircuit for sky130_fd_sc_hd__o22ai_1 abstract view
.subckt sky130_fd_sc_hd__o22ai_1 A1 A2 B1 B2 VGND VNB VPB VPWR Y
.ends

* Black-box entry subcircuit for sky130_fd_sc_hd__a211o_1 abstract view
.subckt sky130_fd_sc_hd__a211o_1 A1 A2 B1 C1 VGND VNB VPB VPWR X
.ends

* Black-box entry subcircuit for sky130_fd_sc_hd__a41o_1 abstract view
.subckt sky130_fd_sc_hd__a41o_1 A1 A2 A3 A4 B1 VGND VNB VPB VPWR X
.ends

* Black-box entry subcircuit for sky130_fd_sc_hd__o221ai_1 abstract view
.subckt sky130_fd_sc_hd__o221ai_1 A1 A2 B1 B2 C1 VGND VNB VPB VPWR Y
.ends

* Black-box entry subcircuit for sky130_fd_sc_hd__a21boi_1 abstract view
.subckt sky130_fd_sc_hd__a21boi_1 A1 A2 B1_N VGND VNB VPB VPWR Y
.ends

* Black-box entry subcircuit for sky130_fd_sc_hd__o21ai_2 abstract view
.subckt sky130_fd_sc_hd__o21ai_2 A1 A2 B1 VGND VNB VPB VPWR Y
.ends

* Black-box entry subcircuit for sky130_fd_sc_hd__or4_1 abstract view
.subckt sky130_fd_sc_hd__or4_1 A B C D VGND VNB VPB VPWR X
.ends

* Black-box entry subcircuit for sky130_fd_sc_hd__or2_2 abstract view
.subckt sky130_fd_sc_hd__or2_2 A B VGND VNB VPB VPWR X
.ends

* Black-box entry subcircuit for sky130_fd_sc_hd__o2111a_1 abstract view
.subckt sky130_fd_sc_hd__o2111a_1 A1 A2 B1 C1 D1 VGND VNB VPB VPWR X
.ends

* Black-box entry subcircuit for sky130_fd_sc_hd__o311a_1 abstract view
.subckt sky130_fd_sc_hd__o311a_1 A1 A2 A3 B1 C1 VGND VNB VPB VPWR X
.ends

* Black-box entry subcircuit for sky130_fd_sc_hd__o2111ai_1 abstract view
.subckt sky130_fd_sc_hd__o2111ai_1 A1 A2 B1 C1 D1 VGND VNB VPB VPWR Y
.ends

* Black-box entry subcircuit for sky130_fd_sc_hd__o22ai_4 abstract view
.subckt sky130_fd_sc_hd__o22ai_4 A1 A2 B1 B2 VGND VNB VPB VPWR Y
.ends

.subckt pipelined_mult VGND VPWR a[0] a[10] a[11] a[12] a[13] a[14] a[15] a[16] a[17]
+ a[18] a[19] a[1] a[20] a[21] a[22] a[23] a[24] a[25] a[26] a[27] a[28] a[29] a[2]
+ a[30] a[31] a[3] a[4] a[5] a[6] a[7] a[8] a[9] b[0] b[10] b[11] b[12] b[13] b[14]
+ b[15] b[16] b[17] b[18] b[19] b[1] b[20] b[21] b[22] b[23] b[24] b[25] b[26] b[27]
+ b[28] b[29] b[2] b[30] b[31] b[3] b[4] b[5] b[6] b[7] b[8] b[9] clk p[0] p[10] p[11]
+ p[12] p[13] p[14] p[15] p[16] p[17] p[18] p[19] p[1] p[20] p[21] p[22] p[23] p[24]
+ p[25] p[26] p[27] p[28] p[29] p[2] p[30] p[31] p[32] p[33] p[34] p[35] p[36] p[37]
+ p[38] p[39] p[3] p[40] p[41] p[42] p[43] p[44] p[45] p[46] p[47] p[48] p[49] p[4]
+ p[50] p[51] p[52] p[53] p[54] p[55] p[56] p[57] p[58] p[59] p[5] p[60] p[61] p[62]
+ p[63] p[6] p[7] p[8] p[9] rst
XFILLER_214_1677 VPWR VGND VPWR VGND sky130_ef_sc_hd__decap_12
XFILLER_171_1371 VGND VGND VPWR VPWR sky130_fd_sc_hd__fill_1
XFILLER_228_813 VPWR VGND VPWR VGND sky130_ef_sc_hd__decap_12
XFILLER_3_1711 VGND VGND VPWR VPWR sky130_fd_sc_hd__fill_1
XFILLER_80_1287 VGND VGND VPWR VPWR sky130_fd_sc_hd__fill_1
XFILLER_167_1429 VPWR VGND VPWR VGND sky130_ef_sc_hd__decap_12
XFILLER_215_529 VPWR VGND VPWR VGND sky130_ef_sc_hd__decap_12
XTAP_TAPCELL_ROW_223_2980 VGND VPWR sky130_fd_sc_hd__tapvpwrvgnd_1
XANTENNA_i_lh_in2[0] net40 VGND VGND VPWR VPWR sky130_fd_sc_hd__diode_2
XFILLER_23_623 VPWR VGND VPWR VGND sky130_ef_sc_hd__decap_12
XFILLER_208_1437 VPWR VGND VPWR VGND sky130_ef_sc_hd__decap_12
XFILLER_223_573 VPWR VGND VPWR VGND sky130_ef_sc_hd__decap_12
XFILLER_211_713 VGND VGND VPWR VPWR sky130_fd_sc_hd__decap_6
XFILLER_52_29 VPWR VGND VPWR VGND sky130_ef_sc_hd__decap_12
XFILLER_52_1301 VPWR VGND VPWR VGND sky130_ef_sc_hd__decap_12
XFILLER_168_29 VPWR VGND VPWR VGND sky130_ef_sc_hd__decap_12
XFILLER_23_689 VPWR VGND VPWR VGND sky130_ef_sc_hd__decap_12
XFILLER_221_1637 VPWR VGND VPWR VGND sky130_ef_sc_hd__decap_12
XFILLER_52_1345 VGND VGND VPWR VPWR sky130_fd_sc_hd__decap_8
XFILLER_13_1329 VPWR VGND VPWR VGND sky130_ef_sc_hd__decap_12
XTAP_TAPCELL_ROW_217_2784 VGND VPWR sky130_fd_sc_hd__tapvpwrvgnd_1
XFILLER_176_661 VPWR VGND VPWR VGND sky130_ef_sc_hd__decap_12
XTAP_TAPCELL_ROW_217_2773 VGND VPWR sky130_fd_sc_hd__tapvpwrvgnd_1
XTAP_TAPCELL_ROW_217_2795 VGND VPWR sky130_fd_sc_hd__tapvpwrvgnd_1
XFILLER_178_1525 VPWR VGND VPWR VGND sky130_ef_sc_hd__decap_12
XFILLER_191_631 VPWR VGND VPWR VGND sky130_ef_sc_hd__decap_12
XFILLER_184_17 VGND VGND VPWR VPWR sky130_fd_sc_hd__decap_8
XTAP_TAPCELL_ROW_213_2648 VGND VPWR sky130_fd_sc_hd__tapvpwrvgnd_1
XFILLER_219_1511 VGND VGND VPWR VPWR sky130_fd_sc_hd__fill_1
XFILLER_178_1569 VPWR VGND VPWR VGND sky130_ef_sc_hd__decap_12
XTAP_TAPCELL_ROW_213_2659 VGND VPWR sky130_fd_sc_hd__tapvpwrvgnd_1
XTAP_TAPCELL_ROW_40_4_3351 VGND VPWR sky130_fd_sc_hd__tapvpwrvgnd_1
XFILLER_117_783 VGND VGND VPWR VPWR sky130_fd_sc_hd__fill_1
XFILLER_77_15 VPWR VGND VPWR VGND sky130_ef_sc_hd__decap_12
XFILLER_104_433 VPWR VGND VPWR VGND sky130_ef_sc_hd__decap_12
XFILLER_117_55 VGND VGND VPWR VPWR sky130_fd_sc_hd__fill_1
XFILLER_8_1633 VPWR VGND VPWR VGND sky130_ef_sc_hd__decap_12
XFILLER_137_1299 VPWR VGND VPWR VGND sky130_ef_sc_hd__decap_12
XFILLER_104_477 VPWR VGND VPWR VGND sky130_ef_sc_hd__decap_12
XFILLER_8_1677 VPWR VGND VPWR VGND sky130_ef_sc_hd__decap_12
XFILLER_213_1121 VPWR VGND VPWR VGND sky130_ef_sc_hd__decap_12
XPHY_EDGE_ROW_117_1_Left_346 VGND VGND VPWR VPWR sky130_fd_sc_hd__decap_3
XFILLER_218_301 VGND VGND VPWR VPWR sky130_fd_sc_hd__decap_6
XTAP_TAPCELL_ROW_194_3_4191 VGND VPWR sky130_fd_sc_hd__tapvpwrvgnd_1
XFILLER_189_1621 VPWR VGND VPWR VGND sky130_ef_sc_hd__decap_12
XFILLER_100_661 VPWR VGND VPWR VGND sky130_ef_sc_hd__decap_12
XFILLER_218_345 VPWR VGND VPWR VGND sky130_ef_sc_hd__decap_12
XFILLER_189_1665 VPWR VGND VPWR VGND sky130_ef_sc_hd__decap_12
XPHY_EDGE_ROW_161_4_Right_179 VGND VGND VPWR VPWR sky130_fd_sc_hd__decap_3
Xi_add_250 VGND VGND VPWR VPWR i_add_250/HI net250 sky130_fd_sc_hd__conb_1
XFILLER_172_3 VPWR VGND VPWR VGND sky130_ef_sc_hd__decap_12
Xi_add_261 VGND VGND VPWR VPWR i_add_261/HI net261 sky130_fd_sc_hd__conb_1
Xi_add_272 VGND VGND VPWR VPWR i_add_272/HI net272 sky130_fd_sc_hd__conb_1
XANTENNA__1042__Q term_high\[63\] VGND VGND VPWR VPWR sky130_fd_sc_hd__diode_2
XFILLER_61_718 VGND VGND VPWR VPWR sky130_fd_sc_hd__fill_2
XFILLER_26_41 VPWR VGND VPWR VGND sky130_ef_sc_hd__decap_12
XFILLER_93_69 VGND VGND VPWR VPWR sky130_fd_sc_hd__fill_2
XFILLER_218_389 VPWR VGND VPWR VGND sky130_ef_sc_hd__decap_12
XFILLER_14_623 VPWR VGND VPWR VGND sky130_ef_sc_hd__decap_12
XFILLER_183_1275 VPWR VGND VPWR VGND sky130_ef_sc_hd__decap_12
XFILLER_109_1335 VGND VGND VPWR VPWR sky130_fd_sc_hd__decap_8
XFILLER_126_1682 VPWR VGND VPWR VGND sky130_ef_sc_hd__decap_12
XFILLER_224_1261 VPWR VGND VPWR VGND sky130_ef_sc_hd__decap_12
XFILLER_9_137 VGND VGND VPWR VPWR sky130_fd_sc_hd__decap_3
XANTENNA__0613__A net186 VGND VGND VPWR VPWR sky130_fd_sc_hd__diode_2
XFILLER_220_1147 VGND VGND VPWR VPWR sky130_fd_sc_hd__fill_1
XFILLER_6_811 VGND VGND VPWR VPWR sky130_fd_sc_hd__fill_1
XTAP_TAPCELL_ROW_209_3_4343 VGND VPWR sky130_fd_sc_hd__tapvpwrvgnd_1
XFILLER_202_1581 VPWR VGND VPWR VGND sky130_ef_sc_hd__decap_12
XFILLER_196_1625 VPWR VGND VPWR VGND sky130_ef_sc_hd__decap_12
XPHY_EDGE_ROW_62_3_Right_1052 VGND VGND VPWR VPWR sky130_fd_sc_hd__decap_3
XFILLER_115_709 VPWR VGND VPWR VGND sky130_ef_sc_hd__decap_12
XFILLER_155_1311 VGND VGND VPWR VPWR sky130_fd_sc_hd__decap_4
XFILLER_194_1393 VGND VGND VPWR VPWR sky130_fd_sc_hd__decap_6
XTAP_TAPCELL_ROW_133_3_3734 VGND VPWR sky130_fd_sc_hd__tapvpwrvgnd_1
XFILLER_107_293 VPWR VGND VPWR VGND sky130_ef_sc_hd__decap_12
XPHY_EDGE_ROW_207_3_Right_225 VGND VGND VPWR VPWR sky130_fd_sc_hd__decap_3
XFILLER_116_1317 VPWR VGND VPWR VGND sky130_ef_sc_hd__decap_12
XFILLER_96_637 VPWR VGND VPWR VGND sky130_ef_sc_hd__decap_12
XPHY_EDGE_ROW_49_1_Left_278 VGND VGND VPWR VPWR sky130_fd_sc_hd__decap_3
XFILLER_3_23 VPWR VGND VPWR VGND sky130_ef_sc_hd__decap_12
XFILLER_46_1694 VPWR VGND VPWR VGND sky130_ef_sc_hd__decap_12
XTAP_TAPCELL_ROW_227_3091 VGND VPWR sky130_fd_sc_hd__tapvpwrvgnd_1
XFILLER_114_1030 VGND VGND VPWR VPWR sky130_fd_sc_hd__decap_6
XFILLER_7_1121 VPWR VGND VPWR VGND sky130_ef_sc_hd__decap_12
XFILLER_228_109 VPWR VGND VPWR VGND sky130_ef_sc_hd__decap_12
XTAP_TAPCELL_ROW_227_3080 VGND VPWR sky130_fd_sc_hd__tapvpwrvgnd_1
XFILLER_3_1007 VGND VGND VPWR VPWR sky130_fd_sc_hd__fill_1
XFILLER_110_469 VGND VGND VPWR VPWR sky130_fd_sc_hd__decap_6
XFILLER_168_1705 VGND VGND VPWR VPWR sky130_fd_sc_hd__fill_1
XFILLER_166_1440 VGND VGND VPWR VPWR sky130_fd_sc_hd__decap_8
XFILLER_229_1161 VPWR VGND VPWR VGND sky130_ef_sc_hd__decap_12
XPHY_EDGE_ROW_163_1_Left_392 VGND VGND VPWR VPWR sky130_fd_sc_hd__decap_3
XFILLER_92_1670 VPWR VGND VPWR VGND sky130_ef_sc_hd__decap_12
XFILLER_162_1337 VGND VGND VPWR VPWR sky130_fd_sc_hd__decap_6
XFILLER_220_587 VGND VGND VPWR VPWR sky130_fd_sc_hd__fill_1
XFILLER_20_637 VPWR VGND VPWR VGND sky130_ef_sc_hd__decap_12
XPHY_EDGE_ROW_123_4_Right_141 VGND VGND VPWR VPWR sky130_fd_sc_hd__decap_3
XFILLER_88_1706 VGND VGND VPWR VPWR sky130_fd_sc_hd__decap_6
XFILLER_53_1698 VPWR VGND VPWR VGND sky130_ef_sc_hd__decap_12
X_0985_ clknet_4_9_0_clk_regs _0006_ VGND VGND VPWR VPWR p_ll_pipe\[6\] sky130_fd_sc_hd__dfxtp_1
XFILLER_158_661 VPWR VGND VPWR VGND sky130_ef_sc_hd__decap_12
XPHY_EDGE_ROW_24_2_Left_474 VGND VGND VPWR VPWR sky130_fd_sc_hd__decap_3
XFILLER_118_525 VGND VGND VPWR VPWR sky130_fd_sc_hd__decap_6
XFILLER_175_1709 VGND VGND VPWR VPWR sky130_fd_sc_hd__decap_3
XFILLER_118_569 VPWR VGND VPWR VGND sky130_ef_sc_hd__decap_12
XFILLER_218_65 VPWR VGND VPWR VGND sky130_ef_sc_hd__decap_12
XFILLER_173_1477 VGND VGND VPWR VPWR sky130_fd_sc_hd__decap_6
XFILLER_82_1349 VGND VGND VPWR VPWR sky130_fd_sc_hd__fill_1
XFILLER_214_1441 VPWR VGND VPWR VGND sky130_ef_sc_hd__decap_12
XFILLER_87_659 VGND VGND VPWR VPWR sky130_fd_sc_hd__decap_4
XFILLER_214_1485 VPWR VGND VPWR VGND sky130_ef_sc_hd__decap_12
XFILLER_228_643 VGND VGND VPWR VPWR sky130_fd_sc_hd__fill_1
XTAP_TAPCELL_ROW_221_2917 VGND VPWR sky130_fd_sc_hd__tapvpwrvgnd_1
XTAP_TAPCELL_ROW_221_2906 VGND VPWR sky130_fd_sc_hd__tapvpwrvgnd_1
XFILLER_216_805 VGND VGND VPWR VPWR sky130_fd_sc_hd__decap_6
XFILLER_216_849 VPWR VGND VPWR VGND sky130_ef_sc_hd__decap_12
XFILLER_103_57 VPWR VGND VPWR VGND sky130_ef_sc_hd__decap_12
XFILLER_215_337 VPWR VGND VPWR VGND sky130_ef_sc_hd__decap_12
XTAP_TAPCELL_ROW_32_3_3310 VGND VPWR sky130_fd_sc_hd__tapvpwrvgnd_1
XFILLER_63_39 VPWR VGND VPWR VGND sky130_ef_sc_hd__decap_12
XFILLER_224_893 VPWR VGND VPWR VGND sky130_ef_sc_hd__decap_12
XFILLER_179_39 VPWR VGND VPWR VGND sky130_ef_sc_hd__decap_12
XFILLER_71_1710 VGND VGND VPWR VPWR sky130_fd_sc_hd__fill_2
XANTENNA_i_add_out[22] net80 VGND VGND VPWR VPWR sky130_fd_sc_hd__diode_2
XFILLER_180_1437 VPWR VGND VPWR VGND sky130_ef_sc_hd__decap_12
XFILLER_196_723 VGND VGND VPWR VPWR sky130_fd_sc_hd__fill_1
XTAP_TAPCELL_ROW_110_1_2213 VGND VPWR sky130_fd_sc_hd__tapvpwrvgnd_1
XTAP_TAPCELL_ROW_110_1_2202 VGND VPWR sky130_fd_sc_hd__tapvpwrvgnd_1
XTAP_TAPCELL_ROW_219_2835 VGND VPWR sky130_fd_sc_hd__tapvpwrvgnd_1
XFILLER_225_1581 VPWR VGND VPWR VGND sky130_ef_sc_hd__decap_12
XTAP_TAPCELL_ROW_219_2857 VGND VPWR sky130_fd_sc_hd__tapvpwrvgnd_1
XFILLER_221_1401 VPWR VGND VPWR VGND sky130_ef_sc_hd__decap_12
XFILLER_208_1289 VPWR VGND VPWR VGND sky130_ef_sc_hd__decap_12
XTAP_TAPCELL_ROW_110_1_2224 VGND VPWR sky130_fd_sc_hd__tapvpwrvgnd_1
XTAP_TAPCELL_ROW_219_2846 VGND VPWR sky130_fd_sc_hd__tapvpwrvgnd_1
XFILLER_109_503 VGND VGND VPWR VPWR sky130_fd_sc_hd__fill_1
XFILLER_195_27 VPWR VGND VPWR VGND sky130_ef_sc_hd__decap_12
XFILLER_11_659 VGND VGND VPWR VPWR sky130_fd_sc_hd__decap_4
XPHY_EDGE_ROW_131_3_Right_1101 VGND VGND VPWR VPWR sky130_fd_sc_hd__decap_3
XANTENNA__1127__CLK clknet_4_2_0_clk_regs VGND VGND VPWR VPWR sky130_fd_sc_hd__diode_2
XPHY_EDGE_ROW_17_4_Left_831 VGND VGND VPWR VPWR sky130_fd_sc_hd__decap_3
XFILLER_139_1317 VPWR VGND VPWR VGND sky130_ef_sc_hd__decap_12
XPHY_EDGE_ROW_49_3_Left_681 VGND VGND VPWR VPWR sky130_fd_sc_hd__decap_3
XFILLER_12_65 VGND VGND VPWR VPWR sky130_fd_sc_hd__decap_6
XFILLER_178_1399 VGND VGND VPWR VPWR sky130_fd_sc_hd__fill_1
XFILLER_128_65 VGND VGND VPWR VPWR sky130_fd_sc_hd__decap_6
XFILLER_191_1533 VGND VGND VPWR VPWR sky130_fd_sc_hd__decap_6
XFILLER_69_1694 VGND VGND VPWR VPWR sky130_fd_sc_hd__decap_3
XFILLER_105_753 VPWR VGND VPWR VGND sky130_ef_sc_hd__decap_12
XFILLER_2_357 VGND VGND VPWR VPWR sky130_fd_sc_hd__decap_6
XFILLER_191_1577 VPWR VGND VPWR VGND sky130_ef_sc_hd__decap_12
XFILLER_120_701 VPWR VGND VPWR VGND sky130_ef_sc_hd__decap_12
XFILLER_105_797 VPWR VGND VPWR VGND sky130_ef_sc_hd__decap_12
XFILLER_78_637 VPWR VGND VPWR VGND sky130_ef_sc_hd__decap_12
XFILLER_8_1441 VPWR VGND VPWR VGND sky130_ef_sc_hd__decap_12
XFILLER_144_53 VPWR VGND VPWR VGND sky130_ef_sc_hd__decap_12
XFILLER_8_1485 VPWR VGND VPWR VGND sky130_ef_sc_hd__decap_12
XFILLER_150_1285 VGND VGND VPWR VPWR sky130_fd_sc_hd__decap_3
XFILLER_111_1225 VGND VGND VPWR VPWR sky130_fd_sc_hd__decap_6
XFILLER_98_1345 VGND VGND VPWR VPWR sky130_fd_sc_hd__decap_4
XFILLER_219_665 VGND VGND VPWR VPWR sky130_fd_sc_hd__decap_6
XFILLER_218_153 VPWR VGND VPWR VGND sky130_ef_sc_hd__decap_12
XFILLER_185_1315 VGND VGND VPWR VPWR sky130_fd_sc_hd__fill_1
XFILLER_160_41 VPWR VGND VPWR VGND sky130_ef_sc_hd__decap_12
XFILLER_218_197 VPWR VGND VPWR VGND sky130_ef_sc_hd__decap_12
XANTENNA__0608__A net186 VGND VGND VPWR VPWR sky130_fd_sc_hd__diode_2
XFILLER_2_1073 VPWR VGND VPWR VGND sky130_ef_sc_hd__decap_12
XFILLER_109_1121 VPWR VGND VPWR VGND sky130_ef_sc_hd__decap_12
XFILLER_187_701 VPWR VGND VPWR VGND sky130_ef_sc_hd__decap_12
XPHY_EDGE_ROW_97_2_Right_820 VGND VGND VPWR VPWR sky130_fd_sc_hd__decap_3
XFILLER_221_329 VGND VGND VPWR VPWR sky130_fd_sc_hd__decap_6
XFILLER_163_1668 VPWR VGND VPWR VGND sky130_ef_sc_hd__decap_12
XFILLER_105_1007 VGND VGND VPWR VPWR sky130_fd_sc_hd__fill_1
XFILLER_35_1373 VGND VGND VPWR VPWR sky130_fd_sc_hd__decap_3
XFILLER_224_1091 VGND VGND VPWR VPWR sky130_fd_sc_hd__fill_1
XFILLER_122_1343 VGND VGND VPWR VPWR sky130_fd_sc_hd__fill_1
X_0770_ _0280_ _0284_ _0285_ VGND VGND VPWR VPWR _0141_ sky130_fd_sc_hd__o21a_1
XFILLER_196_1455 VGND VGND VPWR VPWR sky130_fd_sc_hd__fill_1
XANTENNA__0630__X _0088_ VGND VGND VPWR VPWR sky130_fd_sc_hd__diode_2
XFILLER_170_623 VPWR VGND VPWR VGND sky130_ef_sc_hd__decap_12
XFILLER_115_517 VPWR VGND VPWR VGND sky130_ef_sc_hd__decap_12
XTAP_TAPCELL_ROW_196_3_4210 VGND VPWR sky130_fd_sc_hd__tapvpwrvgnd_1
XFILLER_9_1205 VPWR VGND VPWR VGND sky130_ef_sc_hd__decap_12
XTAP_TAPCELL_ROW_229_3142 VGND VPWR sky130_fd_sc_hd__tapvpwrvgnd_1
XFILLER_170_1617 VGND VGND VPWR VPWR sky130_fd_sc_hd__decap_6
XANTENNA_wire178_A net114 VGND VGND VPWR VPWR sky130_fd_sc_hd__diode_2
XTAP_TAPCELL_ROW_104_1_2077 VGND VPWR sky130_fd_sc_hd__tapvpwrvgnd_1
XTAP_TAPCELL_ROW_229_3175 VGND VPWR sky130_fd_sc_hd__tapvpwrvgnd_1
XTAP_TAPCELL_ROW_229_3164 VGND VPWR sky130_fd_sc_hd__tapvpwrvgnd_1
XTAP_TAPCELL_ROW_229_3153 VGND VPWR sky130_fd_sc_hd__tapvpwrvgnd_1
XTAP_TAPCELL_ROW_104_1_2066 VGND VPWR sky130_fd_sc_hd__tapvpwrvgnd_1
XTAP_TAPCELL_ROW_104_1_2055 VGND VPWR sky130_fd_sc_hd__tapvpwrvgnd_1
XTAP_TAPCELL_ROW_225_3039 VGND VPWR sky130_fd_sc_hd__tapvpwrvgnd_1
XPHY_EDGE_ROW_208_3_Right_226 VGND VGND VPWR VPWR sky130_fd_sc_hd__decap_3
XTAP_TAPCELL_ROW_229_3186 VGND VPWR sky130_fd_sc_hd__tapvpwrvgnd_1
XTAP_TAPCELL_ROW_177_3_4018 VGND VPWR sky130_fd_sc_hd__tapvpwrvgnd_1
XFILLER_116_1147 VGND VGND VPWR VPWR sky130_fd_sc_hd__fill_1
XTAP_TAPCELL_ROW_225_3028 VGND VPWR sky130_fd_sc_hd__tapvpwrvgnd_1
XFILLER_69_659 VGND VGND VPWR VPWR sky130_fd_sc_hd__decap_4
XFILLER_110_233 VPWR VGND VPWR VGND sky130_ef_sc_hd__decap_12
XTAP_TAPCELL_ROW_225_3017 VGND VPWR sky130_fd_sc_hd__tapvpwrvgnd_1
XFILLER_84_629 VGND VGND VPWR VPWR sky130_fd_sc_hd__fill_1
XFILLER_110_277 VPWR VGND VPWR VGND sky130_ef_sc_hd__decap_12
XFILLER_168_1513 VPWR VGND VPWR VGND sky130_ef_sc_hd__decap_12
XANTENNA_wire133_X net133 VGND VGND VPWR VPWR sky130_fd_sc_hd__diode_2
XTAP_TAPCELL_ROW_201_3_4261 VGND VPWR sky130_fd_sc_hd__tapvpwrvgnd_1
XPHY_EDGE_ROW_145_4_Left_959 VGND VGND VPWR VPWR sky130_fd_sc_hd__decap_3
XTAP_TAPCELL_ROW_17_3_3234 VGND VPWR sky130_fd_sc_hd__tapvpwrvgnd_1
XFILLER_92_673 VGND VGND VPWR VPWR sky130_fd_sc_hd__fill_2
XFILLER_209_1521 VPWR VGND VPWR VGND sky130_ef_sc_hd__decap_12
XFILLER_224_189 VGND VGND VPWR VPWR sky130_fd_sc_hd__decap_6
XFILLER_209_1565 VPWR VGND VPWR VGND sky130_ef_sc_hd__decap_12
XFILLER_221_841 VPWR VGND VPWR VGND sky130_ef_sc_hd__decap_12
XFILLER_178_723 VGND VGND VPWR VPWR sky130_fd_sc_hd__fill_1
XFILLER_220_77 VGND VGND VPWR VPWR sky130_fd_sc_hd__decap_6
XFILLER_205_1429 VPWR VGND VPWR VGND sky130_ef_sc_hd__decap_12
XPHY_EDGE_ROW_124_4_Right_142 VGND VGND VPWR VPWR sky130_fd_sc_hd__decap_3
X_0968_ net186 net166 VGND VGND VPWR VPWR _0183_ sky130_fd_sc_hd__and2_1
XFILLER_118_333 VPWR VGND VPWR VGND sky130_ef_sc_hd__decap_12