*SPEF "ieee 1481-1999"
*DESIGN "add3x64"
*DATE "21:55:34 Wednesday January 14, 2026"
*VENDOR "The OpenROAD Project"
*PROGRAM "OpenROAD"
*VERSION "edf00dff99f6c40d67a30c0e22a8191c5d2ed9d6"
*DESIGN_FLOW "NAME_SCOPE LOCAL" "PIN_CAP NONE"
*DIVIDER /
*DELIMITER :
*BUS_DELIMITER []
*T_UNIT 1 NS
*C_UNIT 1 PF
*R_UNIT 1 OHM
*L_UNIT 1 HENRY

*NAME_MAP
*3 clk
*4 in1[0]
*5 in1[10]
*6 in1[11]
*7 in1[12]
*8 in1[13]
*9 in1[14]
*10 in1[15]
*11 in1[16]
*12 in1[17]
*13 in1[18]
*14 in1[19]
*15 in1[1]
*16 in1[20]
*17 in1[21]
*18 in1[22]
*19 in1[23]
*20 in1[24]
*21 in1[25]
*22 in1[26]
*23 in1[27]
*24 in1[28]
*25 in1[29]
*26 in1[2]
*27 in1[30]
*28 in1[31]
*29 in1[32]
*30 in1[33]
*31 in1[34]
*32 in1[35]
*33 in1[36]
*34 in1[37]
*35 in1[38]
*36 in1[39]
*37 in1[3]
*38 in1[40]
*39 in1[41]
*40 in1[42]
*41 in1[43]
*42 in1[44]
*43 in1[45]
*44 in1[46]
*45 in1[47]
*46 in1[48]
*47 in1[49]
*48 in1[4]
*49 in1[50]
*50 in1[51]
*51 in1[52]
*52 in1[53]
*53 in1[54]
*54 in1[55]
*55 in1[56]
*56 in1[57]
*57 in1[58]
*58 in1[59]
*59 in1[5]
*60 in1[60]
*61 in1[61]
*62 in1[62]
*63 in1[63]
*64 in1[6]
*65 in1[7]
*66 in1[8]
*67 in1[9]
*68 in2[0]
*69 in2[10]
*70 in2[11]
*71 in2[12]
*72 in2[13]
*73 in2[14]
*74 in2[15]
*75 in2[16]
*76 in2[17]
*77 in2[18]
*78 in2[19]
*79 in2[1]
*80 in2[20]
*81 in2[21]
*82 in2[22]
*83 in2[23]
*84 in2[24]
*85 in2[25]
*86 in2[26]
*87 in2[27]
*88 in2[28]
*89 in2[29]
*90 in2[2]
*91 in2[30]
*92 in2[31]
*93 in2[32]
*94 in2[33]
*95 in2[34]
*96 in2[35]
*97 in2[36]
*98 in2[37]
*99 in2[38]
*100 in2[39]
*101 in2[3]
*102 in2[40]
*103 in2[41]
*104 in2[42]
*105 in2[43]
*106 in2[44]
*107 in2[45]
*108 in2[46]
*109 in2[47]
*110 in2[48]
*111 in2[49]
*112 in2[4]
*113 in2[50]
*114 in2[51]
*115 in2[52]
*116 in2[53]
*117 in2[54]
*118 in2[55]
*119 in2[56]
*120 in2[57]
*121 in2[58]
*122 in2[59]
*123 in2[5]
*124 in2[60]
*125 in2[61]
*126 in2[62]
*127 in2[63]
*128 in2[6]
*129 in2[7]
*130 in2[8]
*131 in2[9]
*132 in3[0]
*133 in3[10]
*134 in3[11]
*135 in3[12]
*136 in3[13]
*137 in3[14]
*138 in3[15]
*139 in3[16]
*140 in3[17]
*141 in3[18]
*142 in3[19]
*143 in3[1]
*144 in3[20]
*145 in3[21]
*146 in3[22]
*147 in3[23]
*148 in3[24]
*149 in3[25]
*150 in3[26]
*151 in3[27]
*152 in3[28]
*153 in3[29]
*154 in3[2]
*155 in3[30]
*156 in3[31]
*157 in3[32]
*158 in3[33]
*159 in3[34]
*160 in3[35]
*161 in3[36]
*162 in3[37]
*163 in3[38]
*164 in3[39]
*165 in3[3]
*166 in3[40]
*167 in3[41]
*168 in3[42]
*169 in3[43]
*170 in3[44]
*171 in3[45]
*172 in3[46]
*173 in3[47]
*174 in3[48]
*175 in3[49]
*176 in3[4]
*177 in3[50]
*178 in3[51]
*179 in3[52]
*180 in3[53]
*181 in3[54]
*182 in3[55]
*183 in3[56]
*184 in3[57]
*185 in3[58]
*186 in3[59]
*187 in3[5]
*188 in3[60]
*189 in3[61]
*190 in3[62]
*191 in3[63]
*192 in3[6]
*193 in3[7]
*194 in3[8]
*195 in3[9]
*196 out[0]
*197 out[10]
*198 out[11]
*199 out[12]
*200 out[13]
*201 out[14]
*202 out[15]
*203 out[16]
*204 out[17]
*205 out[18]
*206 out[19]
*207 out[1]
*208 out[20]
*209 out[21]
*210 out[22]
*211 out[23]
*212 out[24]
*213 out[25]
*214 out[26]
*215 out[27]
*216 out[28]
*217 out[29]
*218 out[2]
*219 out[30]
*220 out[31]
*221 out[32]
*222 out[33]
*223 out[34]
*224 out[35]
*225 out[36]
*226 out[37]
*227 out[38]
*228 out[39]
*229 out[3]
*230 out[40]
*231 out[41]
*232 out[42]
*233 out[43]
*234 out[44]
*235 out[45]
*236 out[46]
*237 out[47]
*238 out[48]
*239 out[49]
*240 out[4]
*241 out[50]
*242 out[51]
*243 out[52]
*244 out[53]
*245 out[54]
*246 out[55]
*247 out[56]
*248 out[57]
*249 out[58]
*250 out[59]
*251 out[5]
*252 out[60]
*253 out[61]
*254 out[62]
*255 out[63]
*256 out[6]
*257 out[7]
*258 out[8]
*259 out[9]
*260 rst
*261 _0000_
*262 _0001_
*263 _0002_
*264 _0003_
*265 _0004_
*266 _0005_
*267 _0006_
*268 _0007_
*269 _0008_
*270 _0009_
*271 _0010_
*272 _0011_
*273 _0012_
*274 _0013_
*275 _0014_
*276 _0015_
*277 _0016_
*278 _0017_
*279 _0018_
*280 _0019_
*281 _0020_
*282 _0021_
*283 _0022_
*284 _0023_
*285 _0024_
*286 _0025_
*287 _0026_
*288 _0027_
*289 _0028_
*290 _0029_
*291 _0030_
*292 _0031_
*293 _0032_
*294 _0033_
*295 _0034_
*296 _0035_
*297 _0036_
*298 _0037_
*299 _0038_
*300 _0039_
*301 _0040_
*302 _0041_
*303 _0042_
*304 _0043_
*305 _0044_
*306 _0045_
*307 _0046_
*308 _0047_
*309 _0048_
*310 _0049_
*311 _0050_
*312 _0051_
*313 _0052_
*314 _0053_
*315 _0054_
*316 _0055_
*317 _0056_
*318 _0057_
*319 _0058_
*320 _0059_
*321 _0060_
*322 _0061_
*323 _0062_
*324 _0063_
*325 _0064_
*326 _0065_
*327 _0066_
*328 _0067_
*329 _0068_
*330 _0069_
*331 _0070_
*332 _0071_
*333 _0072_
*334 _0073_
*335 _0074_
*336 _0075_
*337 _0076_
*338 _0077_
*339 _0078_
*340 _0079_
*341 _0080_
*342 _0081_
*343 _0082_
*344 _0083_
*345 _0084_
*346 _0085_
*347 _0086_
*348 _0087_
*349 _0088_
*350 _0089_
*351 _0090_
*352 _0091_
*353 _0092_
*354 _0093_
*355 _0094_
*356 _0095_
*357 _0096_
*358 _0097_
*359 _0098_
*360 _0099_
*361 _0100_
*362 _0101_
*363 _0102_
*364 _0103_
*365 _0104_
*366 _0105_
*367 _0106_
*368 _0107_
*369 _0108_
*370 _0109_
*371 _0110_
*372 _0111_
*373 _0112_
*374 _0113_
*375 _0114_
*376 _0115_
*377 _0116_
*378 _0117_
*379 _0118_
*380 _0119_
*381 _0120_
*382 _0121_
*383 _0122_
*384 _0123_
*385 _0124_
*386 _0125_
*387 _0126_
*388 _0127_
*389 _0128_
*390 _0129_
*391 _0130_
*392 _0131_
*393 _0132_
*394 _0133_
*395 _0134_
*396 _0135_
*397 _0136_
*398 _0137_
*399 _0138_
*400 _0139_
*401 _0140_
*402 _0141_
*403 _0142_
*404 _0143_
*405 _0144_
*406 _0145_
*407 _0146_
*408 _0147_
*409 _0148_
*410 _0149_
*411 _0150_
*412 _0151_
*413 _0152_
*414 _0153_
*415 _0154_
*416 _0155_
*417 _0156_
*418 _0157_
*419 _0158_
*420 _0159_
*421 _0160_
*422 _0161_
*423 _0162_
*424 _0163_
*425 _0164_
*426 _0165_
*427 _0166_
*428 _0167_
*429 _0168_
*430 _0169_
*431 _0170_
*432 _0171_
*433 _0172_
*434 _0173_
*435 _0174_
*436 _0175_
*437 _0176_
*438 _0177_
*439 _0178_
*440 _0179_
*441 _0180_
*442 _0181_
*443 _0182_
*444 _0183_
*445 _0184_
*446 _0185_
*447 _0186_
*448 _0187_
*449 _0188_
*450 _0189_
*451 _0190_
*452 _0191_
*453 _0192_
*454 _0193_
*455 _0194_
*456 _0195_
*457 _0196_
*458 _0197_
*459 _0198_
*460 _0199_
*461 _0200_
*462 _0201_
*463 _0202_
*464 _0203_
*465 _0204_
*466 _0205_
*467 _0206_
*468 _0207_
*469 _0208_
*470 _0209_
*471 _0210_
*472 _0211_
*473 _0212_
*474 _0213_
*475 _0214_
*476 _0215_
*477 _0216_
*478 _0217_
*479 _0218_
*480 _0219_
*481 _0220_
*482 _0221_
*483 _0222_
*484 _0223_
*485 _0224_
*486 _0225_
*487 _0226_
*488 _0227_
*489 _0228_
*490 _0229_
*491 _0230_
*492 _0231_
*493 _0232_
*494 _0233_
*495 _0234_
*496 _0235_
*497 _0236_
*498 _0237_
*499 _0238_
*500 _0239_
*501 _0240_
*502 _0241_
*503 _0242_
*504 _0243_
*505 _0244_
*506 _0245_
*507 _0246_
*508 _0247_
*509 _0248_
*510 _0249_
*511 _0250_
*512 _0251_
*513 _0252_
*514 _0253_
*515 _0254_
*516 _0255_
*517 _0256_
*518 _0257_
*519 _0258_
*520 _0259_
*521 _0260_
*522 _0261_
*523 _0262_
*524 _0263_
*525 _0264_
*526 _0265_
*527 _0266_
*528 _0267_
*529 _0268_
*530 _0269_
*531 _0270_
*532 _0271_
*533 _0272_
*534 _0273_
*535 _0274_
*536 _0275_
*537 _0276_
*538 _0277_
*539 _0278_
*540 _0279_
*541 _0280_
*542 _0281_
*543 _0282_
*544 _0283_
*545 _0284_
*546 _0285_
*547 _0286_
*548 _0287_
*549 _0288_
*550 _0289_
*551 _0290_
*552 _0291_
*553 _0292_
*554 _0293_
*555 _0294_
*556 _0295_
*557 _0296_
*558 _0297_
*559 _0298_
*560 _0299_
*561 _0300_
*562 _0301_
*563 _0302_
*564 _0303_
*565 _0304_
*566 _0305_
*567 _0306_
*568 _0307_
*569 _0308_
*570 _0309_
*571 _0310_
*572 _0311_
*573 _0312_
*574 _0313_
*575 _0314_
*576 _0315_
*577 _0316_
*578 _0317_
*579 _0318_
*580 _0319_
*581 _0320_
*582 _0321_
*583 _0322_
*584 _0323_
*585 _0324_
*586 _0325_
*587 _0326_
*588 _0327_
*589 _0328_
*590 _0329_
*591 _0330_
*592 _0331_
*593 _0332_
*594 _0333_
*595 _0334_
*596 _0335_
*597 _0336_
*598 _0337_
*599 _0338_
*600 _0339_
*601 _0340_
*602 _0341_
*603 _0342_
*604 _0343_
*605 _0344_
*606 _0345_
*607 _0346_
*608 _0347_
*609 _0348_
*610 _0349_
*611 _0350_
*612 _0351_
*613 _0352_
*614 _0353_
*615 _0354_
*616 _0355_
*617 _0356_
*618 _0357_
*619 _0358_
*620 _0359_
*621 _0360_
*622 _0361_
*623 _0362_
*624 _0363_
*625 _0364_
*626 _0365_
*627 _0366_
*628 _0367_
*629 _0368_
*630 _0369_
*631 _0370_
*632 _0371_
*633 _0372_
*634 _0373_
*635 _0374_
*636 _0375_
*637 _0376_
*638 _0377_
*639 _0378_
*640 _0379_
*641 _0380_
*642 _0381_
*643 _0382_
*644 _0383_
*645 _0384_
*646 _0385_
*647 _0386_
*648 _0387_
*649 _0388_
*650 _0389_
*651 _0390_
*652 _0391_
*653 _0392_
*654 _0393_
*655 _0394_
*656 _0395_
*657 _0396_
*658 _0397_
*659 _0398_
*660 _0399_
*661 _0400_
*662 _0401_
*663 _0402_
*664 _0403_
*665 _0404_
*666 _0405_
*667 _0406_
*668 _0407_
*669 _0408_
*670 _0409_
*671 _0410_
*672 _0411_
*673 _0412_
*674 _0413_
*675 _0414_
*676 _0415_
*677 _0416_
*678 _0417_
*679 _0418_
*680 _0419_
*681 _0420_
*682 _0421_
*683 _0422_
*684 _0423_
*685 _0424_
*686 _0425_
*687 _0426_
*688 _0427_
*689 _0428_
*690 _0429_
*691 _0430_
*692 _0431_
*693 _0432_
*694 _0433_
*695 _0434_
*696 _0435_
*697 _0436_
*698 _0437_
*699 _0438_
*700 _0439_
*701 _0440_
*702 _0441_
*703 _0442_
*704 _0443_
*705 _0444_
*706 _0445_
*707 _0446_
*708 _0447_
*709 _0448_
*710 _0449_
*711 _0450_
*712 _0451_
*713 _0452_
*714 _0453_
*715 _0454_
*716 _0455_
*717 _0456_
*718 _0457_
*719 _0458_
*720 _0459_
*721 _0460_
*722 _0461_
*723 _0462_
*724 _0463_
*725 _0464_
*726 _0465_
*727 _0466_
*728 _0467_
*729 _0468_
*730 _0469_
*731 _0470_
*732 _0471_
*733 _0472_
*734 _0473_
*735 _0474_
*736 _0475_
*737 _0476_
*738 _0477_
*739 _0478_
*740 _0479_
*741 _0480_
*742 _0481_
*743 _0482_
*744 _0483_
*745 _0484_
*746 _0485_
*747 _0486_
*748 _0487_
*749 _0488_
*750 _0489_
*751 _0490_
*752 _0491_
*753 _0492_
*754 _0493_
*755 _0494_
*756 _0495_
*757 _0496_
*758 _0497_
*759 _0498_
*760 _0499_
*761 _0500_
*762 _0501_
*763 _0502_
*764 _0503_
*765 _0504_
*766 _0505_
*767 _0506_
*768 _0507_
*769 _0508_
*770 _0509_
*771 _0510_
*772 _0511_
*773 _0512_
*774 _0513_
*775 _0514_
*776 _0515_
*777 _0516_
*778 _0517_
*779 _0518_
*780 _0519_
*781 _0520_
*782 _0521_
*783 _0522_
*784 _0523_
*785 _0524_
*786 _0525_
*787 _0526_
*788 _0527_
*789 _0528_
*790 _0529_
*791 _0530_
*792 _0531_
*793 _0532_
*794 _0533_
*795 _0534_
*796 _0535_
*797 _0536_
*798 _0537_
*799 _0538_
*800 _0539_
*801 _0540_
*802 _0541_
*803 _0542_
*804 _0543_
*805 _0544_
*806 _0545_
*807 _0546_
*808 _0547_
*809 _0548_
*810 _0549_
*811 _0550_
*812 _0551_
*813 _0552_
*814 _0553_
*815 _0554_
*816 _0555_
*817 _0556_
*818 _0557_
*819 _0558_
*820 _0559_
*821 _0560_
*822 _0561_
*823 _0562_
*824 _0563_
*825 _0564_
*826 _0565_
*827 _0566_
*828 _0567_
*829 _0568_
*830 _0569_
*831 _0570_
*832 _0571_
*833 _0572_
*834 _0573_
*835 _0574_
*836 _0575_
*837 _0576_
*838 _0577_
*839 _0578_
*840 _0579_
*841 _0580_
*842 _0581_
*843 _0582_
*844 _0583_
*845 _0584_
*846 _0585_
*847 _0586_
*848 _0587_
*849 _0588_
*850 _0589_
*851 _0590_
*852 _0591_
*853 _0592_
*854 _0593_
*855 _0594_
*856 _0595_
*857 _0596_
*858 _0597_
*859 _0598_
*860 _0599_
*861 _0600_
*862 _0601_
*863 _0602_
*864 _0603_
*865 _0604_
*866 _0605_
*867 _0606_
*868 _0607_
*869 _0608_
*870 _0609_
*871 _0610_
*872 _0611_
*873 _0612_
*874 _0613_
*875 _0614_
*876 _0615_
*877 _0616_
*878 _0617_
*879 _0618_
*880 _0619_
*881 _0620_
*882 _0621_
*883 _0622_
*884 _0623_
*885 _0624_
*886 _0625_
*887 _0626_
*888 _0627_
*889 _0628_
*890 _0629_
*891 _0630_
*892 _0631_
*893 _0632_
*894 _0633_
*895 _0634_
*896 _0635_
*897 _0636_
*898 _0637_
*899 _0638_
*900 _0639_
*901 _0640_
*902 _0641_
*903 _0642_
*904 _0643_
*905 _0644_
*906 _0645_
*907 _0646_
*908 _0647_
*909 _0648_
*910 _0649_
*911 _0650_
*912 _0651_
*913 _0652_
*914 _0653_
*915 _0654_
*916 _0655_
*917 _0656_
*918 _0657_
*919 _0658_
*920 _0659_
*921 _0660_
*922 _0661_
*923 _0662_
*924 _0663_
*925 _0664_
*926 _0665_
*927 _0666_
*928 _0667_
*929 _0668_
*930 _0669_
*931 _0670_
*932 _0671_
*933 _0672_
*934 _0673_
*935 _0674_
*936 _0675_
*937 _0676_
*938 _0677_
*939 _0678_
*940 _0679_
*941 _0680_
*942 _0681_
*943 _0682_
*944 _0683_
*945 _0684_
*946 _0685_
*947 _0686_
*948 _0687_
*949 _0688_
*950 _0689_
*951 _0690_
*952 _0691_
*953 _0692_
*954 _0693_
*955 _0694_
*956 _0695_
*957 _0696_
*958 _0697_
*959 _0698_
*960 _0699_
*961 _0700_
*962 _0701_
*963 _0702_
*964 _0703_
*965 _0704_
*966 _0705_
*967 _0706_
*968 _0707_
*969 _0708_
*970 _0709_
*971 _0710_
*972 _0711_
*973 _0712_
*974 _0713_
*975 _0714_
*976 _0715_
*977 _0716_
*978 _0717_
*979 _0718_
*980 _0719_
*981 _0720_
*982 _0721_
*983 _0722_
*984 _0723_
*985 _0724_
*986 _0725_
*987 _0726_
*988 _0727_
*989 _0728_
*990 _0729_
*991 _0730_
*992 _0731_
*993 _0732_
*994 _0733_
*995 _0734_
*996 _0735_
*997 _0736_
*998 _0737_
*999 _0738_
*1000 _0739_
*1001 _0740_
*1002 _0741_
*1003 _0742_
*1004 _0743_
*1005 _0744_
*1006 _0745_
*1007 _0746_
*1008 _0747_
*1009 _0748_
*1010 _0749_
*1011 _0750_
*1012 _0751_
*1013 _0752_
*1014 _0753_
*1015 _0754_
*1016 _0755_
*1017 _0756_
*1018 _0757_
*1019 _0758_
*1020 _0759_
*1021 _0760_
*1022 _0761_
*1023 _0762_
*1024 _0763_
*1025 _0764_
*1026 _0765_
*1027 _0766_
*1028 _0767_
*1029 _0768_
*1030 _0769_
*1031 _0770_
*1032 _0771_
*1033 _0772_
*1034 _0773_
*1035 _0774_
*1036 _0775_
*1037 _0776_
*1038 _0777_
*1039 _0778_
*1040 _0779_
*1041 _0780_
*1042 _0781_
*1043 _0782_
*1044 _0783_
*1045 _0784_
*1046 _0785_
*1047 _0786_
*1048 _0787_
*1049 _0788_
*1050 _0789_
*1051 _0790_
*1052 _0791_
*1053 _0792_
*1054 _0793_
*1055 _0794_
*1056 _0795_
*1057 _0796_
*1058 _0797_
*1059 _0798_
*1060 _0799_
*1061 _0800_
*1062 _0801_
*1063 _0802_
*1064 _0803_
*1065 _0804_
*1066 _0805_
*1067 _0806_
*1068 _0807_
*1069 _0808_
*1070 _0809_
*1071 _0810_
*1072 _0811_
*1073 _0812_
*1074 _0813_
*1075 _0814_
*1076 _0815_
*1077 _0816_
*1078 _0817_
*1079 _0818_
*1080 _0819_
*1081 _0820_
*1082 _0821_
*1083 _0822_
*1084 _0823_
*1085 _0824_
*1086 _0825_
*1087 _0826_
*1088 _0827_
*1089 _0828_
*1090 _0829_
*1091 _0830_
*1092 _0831_
*1093 _0832_
*1094 _0833_
*1095 _0834_
*1096 _0835_
*1097 _0836_
*1098 _0837_
*1099 _0838_
*1100 _0839_
*1101 _0840_
*1102 _0841_
*1103 _0842_
*1104 _0843_
*1105 _0844_
*1106 _0845_
*1107 _0846_
*1108 _0847_
*1109 _0848_
*1110 _0849_
*1111 _0850_
*1112 _0851_
*1113 _0852_
*1114 _0853_
*1115 _0854_
*1116 _0855_
*1117 _0856_
*1118 _0857_
*1119 _0858_
*1120 _0859_
*1121 _0860_
*1122 _0861_
*1123 _0862_
*1124 _0863_
*1125 _0864_
*1126 _0865_
*1127 _0866_
*1128 _0867_
*1129 _0868_
*1130 _0869_
*1131 _0870_
*1132 _0871_
*1133 _0872_
*1134 _0873_
*1135 _0874_
*1136 _0875_
*1137 _0876_
*1138 _0877_
*1139 _0878_
*1140 _0879_
*1141 _0880_
*1142 _0881_
*1143 _0882_
*1144 _0883_
*1145 _0884_
*1146 _0885_
*1147 _0886_
*1148 _0887_
*1149 _0888_
*1150 _0889_
*1151 _0890_
*1152 _0891_
*1153 _0892_
*1154 _0893_
*1155 _0894_
*1156 _0895_
*1157 _0896_
*1158 _0897_
*1159 _0898_
*1160 _0899_
*1161 _0900_
*1162 _0901_
*1163 _0902_
*1164 _0903_
*1165 _0904_
*1166 _0905_
*1167 _0906_
*1168 _0907_
*1169 _0908_
*1170 _0909_
*1171 _0910_
*1172 _0911_
*1173 _0912_
*1174 _0913_
*1175 _0914_
*1176 _0915_
*1177 _0916_
*1178 _0917_
*1179 _0918_
*1180 _0919_
*1181 _0920_
*1182 _0921_
*1183 _0922_
*1184 _0923_
*1185 _0924_
*1186 _0925_
*1187 _0926_
*1188 _0927_
*1189 _0928_
*1190 _0929_
*1191 _0930_
*1192 _0931_
*1193 _0932_
*1194 _0933_
*1195 _0934_
*1196 _0935_
*1197 _0936_
*1198 _0937_
*1199 _0938_
*1200 _0939_
*1201 _0940_
*1202 _0941_
*1203 _0942_
*1204 _0943_
*1205 _0944_
*1206 _0945_
*1207 _0946_
*1208 _0947_
*1209 _0948_
*1210 _0949_
*1211 _0950_
*1212 _0951_
*1213 _0952_
*1214 _0953_
*1215 _0954_
*1216 _0955_
*1217 _0956_
*1218 _0957_
*1219 _0958_
*1220 _0959_
*1221 _0960_
*1222 _0961_
*1223 _0962_
*1224 _0963_
*1225 _0964_
*1226 _0965_
*1227 _0966_
*1228 _0967_
*1229 _0968_
*1230 _0969_
*1231 _0970_
*1232 clknet_0_clk
*1233 clknet_3_0_0_clk
*1234 clknet_3_1_0_clk
*1235 clknet_3_2_0_clk
*1236 clknet_3_3_0_clk
*1237 clknet_3_4_0_clk
*1238 clknet_3_5_0_clk
*1239 clknet_3_6_0_clk
*1240 clknet_3_7_0_clk
*1241 net1
*1242 net10
*1243 net100
*1244 net101
*1245 net102
*1246 net103
*1247 net104
*1248 net105
*1249 net106
*1250 net107
*1251 net108
*1252 net109
*1253 net11
*1254 net110
*1255 net111
*1256 net112
*1257 net113
*1258 net114
*1259 net115
*1260 net116
*1261 net117
*1262 net118
*1263 net119
*1264 net12
*1265 net120
*1266 net121
*1267 net122
*1268 net123
*1269 net124
*1270 net125
*1271 net126
*1272 net127
*1273 net128
*1274 net129
*1275 net13
*1276 net130
*1277 net131
*1278 net132
*1279 net133
*1280 net134
*1281 net135
*1282 net136
*1283 net137
*1284 net138
*1285 net139
*1286 net14
*1287 net140
*1288 net141
*1289 net142
*1290 net143
*1291 net144
*1292 net145
*1293 net146
*1294 net147
*1295 net148
*1296 net149
*1297 net15
*1298 net150
*1299 net151
*1300 net152
*1301 net153
*1302 net154
*1303 net155
*1304 net156
*1305 net157
*1306 net158
*1307 net159
*1308 net16
*1309 net160
*1310 net161
*1311 net162
*1312 net163
*1313 net164
*1314 net165
*1315 net166
*1316 net167
*1317 net168
*1318 net169
*1319 net17
*1320 net170
*1321 net171
*1322 net172
*1323 net173
*1324 net174
*1325 net175
*1326 net176
*1327 net177
*1328 net178
*1329 net179
*1330 net18
*1331 net180
*1332 net181
*1333 net182
*1334 net183
*1335 net184
*1336 net185
*1337 net186
*1338 net187
*1339 net188
*1340 net189
*1341 net19
*1342 net190
*1343 net191
*1344 net192
*1345 net193
*1346 net194
*1347 net195
*1348 net196
*1349 net197
*1350 net198
*1351 net199
*1352 net2
*1353 net20
*1354 net200
*1355 net201
*1356 net202
*1357 net203
*1358 net204
*1359 net205
*1360 net206
*1361 net207
*1362 net208
*1363 net209
*1364 net21
*1365 net210
*1366 net211
*1367 net212
*1368 net213
*1369 net214
*1370 net215
*1371 net216
*1372 net217
*1373 net218
*1374 net219
*1375 net22
*1376 net220
*1377 net221
*1378 net222
*1379 net223
*1380 net224
*1381 net225
*1382 net226
*1383 net227
*1384 net228
*1385 net229
*1386 net23
*1387 net230
*1388 net231
*1389 net232
*1390 net233
*1391 net234
*1392 net235
*1393 net236
*1394 net237
*1395 net238
*1396 net239
*1397 net24
*1398 net240
*1399 net241
*1400 net242
*1401 net243
*1402 net244
*1403 net245
*1404 net246
*1405 net247
*1406 net248
*1407 net249
*1408 net25
*1409 net250
*1410 net251
*1411 net252
*1412 net253
*1413 net254
*1414 net255
*1415 net256
*1416 net257
*1417 net258
*1418 net259
*1419 net26
*1420 net260
*1421 net261
*1422 net262
*1423 net263
*1424 net264
*1425 net265
*1426 net266
*1427 net267
*1428 net268
*1429 net269
*1430 net27
*1431 net270
*1432 net271
*1433 net28
*1434 net29
*1435 net3
*1436 net30
*1437 net31
*1438 net32
*1439 net33
*1440 net34
*1441 net35
*1442 net36
*1443 net37
*1444 net38
*1445 net39
*1446 net4
*1447 net40
*1448 net41
*1449 net42
*1450 net43
*1451 net44
*1452 net45
*1453 net46
*1454 net47
*1455 net48
*1456 net49
*1457 net5
*1458 net50
*1459 net51
*1460 net52
*1461 net53
*1462 net54
*1463 net55
*1464 net56
*1465 net57
*1466 net58
*1467 net59
*1468 net6
*1469 net60
*1470 net61
*1471 net62
*1472 net63
*1473 net64
*1474 net65
*1475 net66
*1476 net67
*1477 net68
*1478 net69
*1479 net7
*1480 net70
*1481 net71
*1482 net72
*1483 net73
*1484 net74
*1485 net75
*1486 net76
*1487 net77
*1488 net78
*1489 net79
*1490 net8
*1491 net80
*1492 net81
*1493 net82
*1494 net83
*1495 net84
*1496 net85
*1497 net86
*1498 net87
*1499 net88
*1500 net89
*1501 net9
*1502 net90
*1503 net91
*1504 net92
*1505 net93
*1506 net94
*1507 net95
*1508 net96
*1509 net97
*1510 net98
*1511 net99
*1512 ANTENNA__0982__A
*1513 ANTENNA__0982__Y
*1514 ANTENNA__1149__B1
*1515 ANTENNA__1169__A
*1516 ANTENNA__1181__B1
*1517 ANTENNA__1205__B1
*1518 ANTENNA__1218__B1
*1519 ANTENNA__1234__B1
*1520 ANTENNA__1247__B1
*1521 ANTENNA__1268__A
*1522 ANTENNA__1297__B1
*1523 ANTENNA__1332__B1
*1524 ANTENNA__1334__A
*1525 ANTENNA__1335__A
*1526 ANTENNA__1336__A
*1527 ANTENNA__1337__A1
*1528 ANTENNA__1362__A
*1529 ANTENNA__1377__B1
*1530 ANTENNA__1395__B
*1531 ANTENNA__1396__B
*1532 ANTENNA__1397__B
*1533 ANTENNA__1398__A2
*1534 ANTENNA__1400__A2
*1535 ANTENNA__1424__B
*1536 ANTENNA__1425__B
*1537 ANTENNA__1426__B
*1538 ANTENNA__1427__A2
*1539 ANTENNA__1428__A2
*1540 ANTENNA__1437__B1
*1541 ANTENNA__1439__Y
*1542 ANTENNA__1440__B
*1543 ANTENNA__1441__B
*1544 ANTENNA__1442__A2
*1545 ANTENNA__1444__A2
*1546 ANTENNA__1445__A2
*1547 ANTENNA__1447__B1
*1548 ANTENNA__1448__A
*1549 ANTENNA__1449__C1
*1550 ANTENNA__1462__Y
*1551 ANTENNA__1463__A
*1552 ANTENNA__1464__A
*1553 ANTENNA__1466__B1
*1554 ANTENNA__1479__A
*1555 ANTENNA__1492__B1
*1556 ANTENNA__1504__B1
*1557 ANTENNA__1511__B
*1558 ANTENNA__1512__B
*1559 ANTENNA__1513__B
*1560 ANTENNA__1515__A2
*1561 ANTENNA__1516__A2
*1562 ANTENNA__1521__B1
*1563 ANTENNA__1534__B1
*1564 ANTENNA__1548__B1
*1565 ANTENNA__1550__B
*1566 ANTENNA__1551__B
*1567 ANTENNA__1553__A2
*1568 ANTENNA__1554__A2
*1569 ANTENNA__1555__A2
*1570 ANTENNA__1561__B1
*1571 ANTENNA__1563__A
*1572 ANTENNA__1564__A
*1573 ANTENNA__1565__B1_N
*1574 ANTENNA__1566__A1
*1575 ANTENNA__1566__B1
*1576 ANTENNA__1567__A1
*1577 ANTENNA__1582__A
*1578 ANTENNA__1584__B
*1579 ANTENNA__1585__B
*1580 ANTENNA__1586__A2
*1581 ANTENNA__1587__A2
*1582 ANTENNA__1588__A2
*1583 ANTENNA__1593__B1
*1584 ANTENNA__1600__A2
*1585 ANTENNA__1601__A2
*1586 ANTENNA__1609__B1
*1587 ANTENNA__1623__A
*1588 ANTENNA__1624__A
*1589 ANTENNA__1624__B
*1590 ANTENNA__1625__A
*1591 ANTENNA__1625__B
*1592 ANTENNA__1626__A1
*1593 ANTENNA__1626__A2
*1594 ANTENNA__1627__A1
*1595 ANTENNA__1627__A2
*1596 ANTENNA__1628__A1
*1597 ANTENNA__1628__A2
*1598 ANTENNA__1638__B1
*1599 ANTENNA__1641__B
*1600 ANTENNA__1642__B
*1601 ANTENNA__1643__B
*1602 ANTENNA__1644__A2
*1603 ANTENNA__1645__A2
*1604 ANTENNA__1650__B1
*1605 ANTENNA__1652__A
*1606 ANTENNA__1652__B
*1607 ANTENNA__1653__A
*1608 ANTENNA__1653__B
*1609 ANTENNA__1654__A
*1610 ANTENNA__1654__B
*1611 ANTENNA__1655__A1
*1612 ANTENNA__1655__A2
*1613 ANTENNA__1656__A1
*1614 ANTENNA__1656__A2
*1615 ANTENNA__1667__B1
*1616 ANTENNA__1675__A1
*1617 ANTENNA__1675__A2
*1618 ANTENNA__1680__A
*1619 ANTENNA__1699__A1
*1620 ANTENNA__1702__B1
*1621 ANTENNA__1713__B1
*1622 ANTENNA__1726__A
*1623 ANTENNA__1738__B1
*1624 ANTENNA__1753__B1
*1625 ANTENNA__1765__B1
*1626 ANTENNA__1781__A
*1627 ANTENNA__1792__B1
*1628 ANTENNA__1813__B1
*1629 ANTENNA__1825__B1
*1630 ANTENNA__1841__A
*1631 ANTENNA__1853__B1
*1632 ANTENNA__1870__B1
*1633 ANTENNA__1879__B1
*1634 ANTENNA__1896__B1
*1635 ANTENNA__1904__A
*1636 ANTENNA__1906__B1
*1637 ANTENNA__1909__A
*1638 ANTENNA__1909__X
*1639 ANTENNA__1911__A
*1640 ANTENNA__1911__X
*1641 ANTENNA__1913__B1
*1642 ANTENNA__1918__A
*1643 ANTENNA__1920__B1
*1644 ANTENNA__1923__B1
*1645 ANTENNA__1926__B1
*1646 ANTENNA__1929__B1
*1647 ANTENNA__1933__A
*1648 ANTENNA__1935__B1
*1649 ANTENNA__1938__B1
*1650 ANTENNA__1940__B1
*1651 ANTENNA__1942__CLK
*1652 ANTENNA__1943__CLK
*1653 ANTENNA__1944__CLK
*1654 ANTENNA__1945__CLK
*1655 ANTENNA__1946__CLK
*1656 ANTENNA__1947__CLK
*1657 ANTENNA__1948__CLK
*1658 ANTENNA__1949__CLK
*1659 ANTENNA__1950__CLK
*1660 ANTENNA__1951__CLK
*1661 ANTENNA__1952__CLK
*1662 ANTENNA__1953__CLK
*1663 ANTENNA__1954__CLK
*1664 ANTENNA__1955__CLK
*1665 ANTENNA__1956__CLK
*1666 ANTENNA__1957__Q
*1667 ANTENNA__1958__Q
*1668 ANTENNA__1961__CLK
*1669 ANTENNA__1962__CLK
*1670 ANTENNA__1963__CLK
*1671 ANTENNA__1964__CLK
*1672 ANTENNA__1965__CLK
*1673 ANTENNA__1966__CLK
*1674 ANTENNA__1967__CLK
*1675 ANTENNA__1968__CLK
*1676 ANTENNA__1969__CLK
*1677 ANTENNA__1970__CLK
*1678 ANTENNA__1971__CLK
*1679 ANTENNA__1972__CLK
*1680 ANTENNA__1973__CLK
*1681 ANTENNA__1974__CLK
*1682 ANTENNA__1975__CLK
*1683 ANTENNA__1976__CLK
*1684 ANTENNA__1985__CLK
*1685 ANTENNA__1986__CLK
*1686 ANTENNA__1987__CLK
*1687 ANTENNA__1988__CLK
*1688 ANTENNA__1989__CLK
*1689 ANTENNA__1990__CLK
*1690 ANTENNA__1991__CLK
*1691 ANTENNA__1992__CLK
*1692 ANTENNA__1993__CLK
*1693 ANTENNA__1994__D
*1694 ANTENNA__1995__D
*1695 ANTENNA__1998__CLK
*1696 ANTENNA__1999__CLK
*1697 ANTENNA__2000__CLK
*1698 ANTENNA__2001__CLK
*1699 ANTENNA__2002__CLK
*1700 ANTENNA__2003__CLK
*1701 ANTENNA__2004__CLK
*1702 ANTENNA__2005__CLK
*1703 ANTENNA_clkbuf_0_clk_A
*1704 ANTENNA_clkbuf_0_clk_X
*1705 ANTENNA_clkbuf_3_0_0_clk_A
*1706 ANTENNA_clkbuf_3_0_0_clk_X
*1707 ANTENNA_clkbuf_3_1_0_clk_A
*1708 ANTENNA_clkbuf_3_1_0_clk_X
*1709 ANTENNA_clkbuf_3_2_0_clk_A
*1710 ANTENNA_clkbuf_3_2_0_clk_X
*1711 ANTENNA_clkbuf_3_3_0_clk_A
*1712 ANTENNA_clkbuf_3_4_0_clk_A
*1713 ANTENNA_clkbuf_3_4_0_clk_X
*1714 ANTENNA_clkbuf_3_5_0_clk_A
*1715 ANTENNA_clkbuf_3_6_0_clk_A
*1716 ANTENNA_clkbuf_3_6_0_clk_X
*1717 ANTENNA_clkbuf_3_7_0_clk_A
*1718 ANTENNA_clkbuf_3_7_0_clk_X
*1719 ANTENNA_clkload0_A
*1720 ANTENNA_clkload1_A
*1721 ANTENNA_clkload2_A
*1722 ANTENNA_clkload4_A
*1723 ANTENNA_clkload6_A
*1724 ANTENNA_fanout264_A
*1725 ANTENNA_fanout264_X
*1726 ANTENNA_fanout265_A
*1727 ANTENNA_fanout265_X
*1728 ANTENNA_fanout266_A
*1729 ANTENNA_fanout266_X
*1730 ANTENNA_fanout267_A
*1731 ANTENNA_fanout267_X
*1732 ANTENNA_fanout268_A
*1733 ANTENNA_fanout269_A
*1734 ANTENNA_fanout269_X
*1735 ANTENNA_fanout270_A
*1736 ANTENNA_fanout270_X
*1737 ANTENNA_fanout271_X
*1738 ANTENNA_input100_A
*1739 ANTENNA_input101_A
*1740 ANTENNA_input102_A
*1741 ANTENNA_input103_A
*1742 ANTENNA_input103_X
*1743 ANTENNA_input104_A
*1744 ANTENNA_input105_A
*1745 ANTENNA_input105_X
*1746 ANTENNA_input106_A
*1747 ANTENNA_input107_A
*1748 ANTENNA_input108_A
*1749 ANTENNA_input109_A
*1750 ANTENNA_input10_A
*1751 ANTENNA_input110_A
*1752 ANTENNA_input111_A
*1753 ANTENNA_input112_A
*1754 ANTENNA_input113_A
*1755 ANTENNA_input114_A
*1756 ANTENNA_input115_A
*1757 ANTENNA_input116_A
*1758 ANTENNA_input117_A
*1759 ANTENNA_input118_A
*1760 ANTENNA_input119_A
*1761 ANTENNA_input11_A
*1762 ANTENNA_input120_A
*1763 ANTENNA_input121_A
*1764 ANTENNA_input122_A
*1765 ANTENNA_input123_A
*1766 ANTENNA_input124_A
*1767 ANTENNA_input125_A
*1768 ANTENNA_input126_A
*1769 ANTENNA_input127_A
*1770 ANTENNA_input128_A
*1771 ANTENNA_input129_A
*1772 ANTENNA_input12_A
*1773 ANTENNA_input130_A
*1774 ANTENNA_input131_A
*1775 ANTENNA_input132_A
*1776 ANTENNA_input133_A
*1777 ANTENNA_input134_A
*1778 ANTENNA_input135_A
*1779 ANTENNA_input136_A
*1780 ANTENNA_input137_A
*1781 ANTENNA_input138_A
*1782 ANTENNA_input139_A
*1783 ANTENNA_input13_A
*1784 ANTENNA_input140_A
*1785 ANTENNA_input141_A
*1786 ANTENNA_input142_A
*1787 ANTENNA_input143_A
*1788 ANTENNA_input144_A
*1789 ANTENNA_input145_A
*1790 ANTENNA_input146_A
*1791 ANTENNA_input147_A
*1792 ANTENNA_input148_A
*1793 ANTENNA_input149_A
*1794 ANTENNA_input14_A
*1795 ANTENNA_input150_A
*1796 ANTENNA_input151_A
*1797 ANTENNA_input152_A
*1798 ANTENNA_input153_A
*1799 ANTENNA_input154_A
*1800 ANTENNA_input155_A
*1801 ANTENNA_input156_A
*1802 ANTENNA_input157_A
*1803 ANTENNA_input158_A
*1804 ANTENNA_input159_A
*1805 ANTENNA_input15_A
*1806 ANTENNA_input160_A
*1807 ANTENNA_input161_A
*1808 ANTENNA_input162_A
*1809 ANTENNA_input163_A
*1810 ANTENNA_input163_X
*1811 ANTENNA_input164_A
*1812 ANTENNA_input165_A
*1813 ANTENNA_input166_A
*1814 ANTENNA_input167_A
*1815 ANTENNA_input168_A
*1816 ANTENNA_input169_A
*1817 ANTENNA_input16_A
*1818 ANTENNA_input170_A
*1819 ANTENNA_input171_A
*1820 ANTENNA_input172_A
*1821 ANTENNA_input173_A
*1822 ANTENNA_input174_A
*1823 ANTENNA_input175_A
*1824 ANTENNA_input176_A
*1825 ANTENNA_input177_A
*1826 ANTENNA_input178_A
*1827 ANTENNA_input179_A
*1828 ANTENNA_input17_A
*1829 ANTENNA_input180_A
*1830 ANTENNA_input181_A
*1831 ANTENNA_input182_A
*1832 ANTENNA_input183_A
*1833 ANTENNA_input184_A
*1834 ANTENNA_input185_A
*1835 ANTENNA_input186_A
*1836 ANTENNA_input187_A
*1837 ANTENNA_input188_A
*1838 ANTENNA_input189_A
*1839 ANTENNA_input18_A
*1840 ANTENNA_input190_A
*1841 ANTENNA_input191_A
*1842 ANTENNA_input192_A
*1843 ANTENNA_input193_A
*1844 ANTENNA_input19_A
*1845 ANTENNA_input1_A
*1846 ANTENNA_input20_A
*1847 ANTENNA_input21_A
*1848 ANTENNA_input22_A
*1849 ANTENNA_input22_X
*1850 ANTENNA_input23_A
*1851 ANTENNA_input24_A
*1852 ANTENNA_input25_A
*1853 ANTENNA_input25_X
*1854 ANTENNA_input26_A
*1855 ANTENNA_input26_X
*1856 ANTENNA_input27_A
*1857 ANTENNA_input28_A
*1858 ANTENNA_input29_A
*1859 ANTENNA_input2_A
*1860 ANTENNA_input30_A
*1861 ANTENNA_input30_X
*1862 ANTENNA_input31_A
*1863 ANTENNA_input32_A
*1864 ANTENNA_input33_A
*1865 ANTENNA_input33_X
*1866 ANTENNA_input34_A
*1867 ANTENNA_input35_A
*1868 ANTENNA_input36_A
*1869 ANTENNA_input36_X
*1870 ANTENNA_input37_A
*1871 ANTENNA_input38_A
*1872 ANTENNA_input39_A
*1873 ANTENNA_input39_X
*1874 ANTENNA_input3_A
*1875 ANTENNA_input40_A
*1876 ANTENNA_input40_X
*1877 ANTENNA_input41_A
*1878 ANTENNA_input41_X
*1879 ANTENNA_input42_A
*1880 ANTENNA_input43_A
*1881 ANTENNA_input44_A
*1882 ANTENNA_input45_A
*1883 ANTENNA_input46_A
*1884 ANTENNA_input47_A
*1885 ANTENNA_input48_A
*1886 ANTENNA_input49_A
*1887 ANTENNA_input4_A
*1888 ANTENNA_input50_A
*1889 ANTENNA_input51_A
*1890 ANTENNA_input52_A
*1891 ANTENNA_input53_A
*1892 ANTENNA_input54_A
*1893 ANTENNA_input55_A
*1894 ANTENNA_input56_A
*1895 ANTENNA_input57_A
*1896 ANTENNA_input58_A
*1897 ANTENNA_input59_A
*1898 ANTENNA_input5_A
*1899 ANTENNA_input60_A
*1900 ANTENNA_input61_A
*1901 ANTENNA_input62_A
*1902 ANTENNA_input63_A
*1903 ANTENNA_input64_A
*1904 ANTENNA_input65_A
*1905 ANTENNA_input66_A
*1906 ANTENNA_input67_A
*1907 ANTENNA_input68_A
*1908 ANTENNA_input69_A
*1909 ANTENNA_input6_A
*1910 ANTENNA_input70_A
*1911 ANTENNA_input71_A
*1912 ANTENNA_input72_A
*1913 ANTENNA_input73_A
*1914 ANTENNA_input74_A
*1915 ANTENNA_input75_A
*1916 ANTENNA_input76_A
*1917 ANTENNA_input77_A
*1918 ANTENNA_input78_A
*1919 ANTENNA_input79_A
*1920 ANTENNA_input7_A
*1921 ANTENNA_input80_A
*1922 ANTENNA_input81_A
*1923 ANTENNA_input82_A
*1924 ANTENNA_input82_X
*1925 ANTENNA_input83_A
*1926 ANTENNA_input84_A
*1927 ANTENNA_input85_A
*1928 ANTENNA_input86_A
*1929 ANTENNA_input87_A
*1930 ANTENNA_input88_A
*1931 ANTENNA_input89_A
*1932 ANTENNA_input8_A
*1933 ANTENNA_input90_A
*1934 ANTENNA_input91_A
*1935 ANTENNA_input92_A
*1936 ANTENNA_input93_A
*1937 ANTENNA_input94_A
*1938 ANTENNA_input95_A
*1939 ANTENNA_input96_A
*1940 ANTENNA_input97_A
*1941 ANTENNA_input98_A
*1942 ANTENNA_input99_A
*1943 ANTENNA_input99_X
*1944 ANTENNA_input9_A
*1945 ANTENNA_output214_A
*1946 ANTENNA_output215_A
*1947 FILLER_0_105
*1948 FILLER_0_111
*1949 FILLER_0_113
*1950 FILLER_0_119
*1951 FILLER_0_126
*1952 FILLER_0_132
*1953 FILLER_0_139
*1954 FILLER_0_146
*1955 FILLER_0_153
*1956 FILLER_0_161
*1957 FILLER_0_169
*1958 FILLER_0_179
*1959 FILLER_0_27