*SPEF "ieee 1481-1999"
*DESIGN "mult_16x16"
*DATE "21:52:18 Wednesday January 14, 2026"
*VENDOR "The OpenROAD Project"
*PROGRAM "OpenROAD"
*VERSION "edf00dff99f6c40d67a30c0e22a8191c5d2ed9d6"
*DESIGN_FLOW "NAME_SCOPE LOCAL" "PIN_CAP NONE"
*DIVIDER /
*DELIMITER :
*BUS_DELIMITER []
*T_UNIT 1 NS
*C_UNIT 1 PF
*R_UNIT 1 OHM
*L_UNIT 1 HENRY

*NAME_MAP
*3 clk
*4 in1[0]
*5 in1[10]
*6 in1[11]
*7 in1[12]
*8 in1[13]
*9 in1[14]
*10 in1[15]
*11 in1[1]
*12 in1[2]
*13 in1[3]
*14 in1[4]
*15 in1[5]
*16 in1[6]
*17 in1[7]
*18 in1[8]
*19 in1[9]
*20 in2[0]
*21 in2[10]
*22 in2[11]
*23 in2[12]
*24 in2[13]
*25 in2[14]
*26 in2[15]
*27 in2[1]
*28 in2[2]
*29 in2[3]
*30 in2[4]
*31 in2[5]
*32 in2[6]
*33 in2[7]
*34 in2[8]
*35 in2[9]
*36 out[0]
*37 out[10]
*38 out[11]
*39 out[12]
*40 out[13]
*41 out[14]
*42 out[15]
*43 out[16]
*44 out[17]
*45 out[18]
*46 out[19]
*47 out[1]
*48 out[20]
*49 out[21]
*50 out[22]
*51 out[23]
*52 out[24]
*53 out[25]
*54 out[26]
*55 out[27]
*56 out[28]
*57 out[29]
*58 out[2]
*59 out[30]
*60 out[31]
*61 out[3]
*62 out[4]
*63 out[5]
*64 out[6]
*65 out[7]
*66 out[8]
*67 out[9]
*68 rst
*69 _0000_
*70 _0001_
*71 _0002_
*72 _0003_
*73 _0004_
*74 _0005_
*75 _0006_
*76 _0007_
*77 _0008_
*78 _0009_
*79 _0010_
*80 _0011_
*81 _0012_
*82 _0013_
*83 _0014_
*84 _0015_
*85 _0016_
*86 _0017_
*87 _0018_
*88 _0019_
*89 _0020_
*90 _0021_
*91 _0022_
*92 _0023_
*93 _0024_
*94 _0025_
*95 _0026_
*96 _0027_
*97 _0028_
*98 _0029_
*99 _0030_
*100 _0031_
*101 _0032_
*102 _0033_
*103 _0034_
*104 _0035_
*105 _0036_
*106 _0037_
*107 _0038_
*108 _0039_
*109 _0040_
*110 _0041_
*111 _0042_
*112 _0043_
*113 _0044_
*114 _0045_
*115 _0046_
*116 _0047_
*117 _0048_
*118 _0049_
*119 _0050_
*120 _0051_
*121 _0052_
*122 _0053_
*123 _0054_
*124 _0055_
*125 _0056_
*126 _0057_
*127 _0058_
*128 _0059_
*129 _0060_
*130 _0061_
*131 _0062_
*132 _0063_
*133 _0064_
*134 _0065_
*135 _0066_
*136 _0067_
*137 _0068_
*138 _0069_
*139 _0070_
*140 _0071_
*141 _0072_
*142 _0073_
*143 _0074_
*144 _0075_
*145 _0076_
*146 _0077_
*147 _0078_
*148 _0079_
*149 _0080_
*150 _0081_
*151 _0082_
*152 _0083_
*153 _0084_
*154 _0085_
*155 _0086_
*156 _0087_
*157 _0088_
*158 _0089_
*159 _0090_
*160 _0091_
*161 _0092_
*162 _0093_
*163 _0094_
*164 _0095_
*165 _0096_
*166 _0097_
*167 _0098_
*168 _0099_
*169 _0100_
*170 _0101_
*171 _0102_
*172 _0103_
*173 _0104_
*174 _0105_
*175 _0106_
*176 _0107_
*177 _0108_
*178 _0109_
*179 _0110_
*180 _0111_
*181 _0112_
*182 _0113_
*183 _0114_
*184 _0115_
*185 _0116_
*186 _0117_
*187 _0118_
*188 _0119_
*189 _0120_
*190 _0121_
*191 _0122_
*192 _0123_
*193 _0124_
*194 _0125_
*195 _0126_
*196 _0127_
*197 _0128_
*198 _0129_
*199 _0130_
*200 _0131_
*201 _0132_
*202 _0133_
*203 _0134_
*204 _0135_
*205 _0136_
*206 _0137_
*207 _0138_
*208 _0139_
*209 _0140_
*210 _0141_
*211 _0142_
*212 _0143_
*213 _0144_
*214 _0145_
*215 _0146_
*216 _0147_
*217 _0148_
*218 _0149_
*219 _0150_
*220 _0151_
*221 _0152_
*222 _0153_
*223 _0154_
*224 _0155_
*225 _0156_
*226 _0157_
*227 _0158_
*228 _0159_
*229 _0160_
*230 _0161_
*231 _0162_
*232 _0163_
*233 _0164_
*234 _0165_
*235 _0166_
*236 _0167_
*237 _0168_
*238 _0169_
*239 _0170_
*240 _0171_
*241 _0172_
*242 _0173_
*243 _0174_
*244 _0175_
*245 _0176_
*246 _0177_
*247 _0178_
*248 _0179_
*249 _0180_
*250 _0181_
*251 _0182_
*252 _0183_
*253 _0184_
*254 _0185_
*255 _0186_
*256 _0187_
*257 _0188_
*258 _0189_
*259 _0190_
*260 _0191_
*261 _0192_
*262 _0193_
*263 _0194_
*264 _0195_
*265 _0196_
*266 _0197_
*267 _0198_
*268 _0199_
*269 _0200_
*270 _0201_
*271 _0202_
*272 _0203_
*273 _0204_
*274 _0205_
*275 _0206_
*276 _0207_
*277 _0208_
*278 _0209_
*279 _0210_
*280 _0211_
*281 _0212_
*282 _0213_
*283 _0214_
*284 _0215_
*285 _0216_
*286 _0217_
*287 _0218_
*288 _0219_
*289 _0220_
*290 _0221_
*291 _0222_
*292 _0223_
*293 _0224_
*294 _0225_
*295 _0226_
*296 _0227_
*297 _0228_
*298 _0229_
*299 _0230_
*300 _0231_
*301 _0232_
*302 _0233_
*303 _0234_
*304 _0235_
*305 _0236_
*306 _0237_
*307 _0238_
*308 _0239_
*309 _0240_
*310 _0241_
*311 _0242_
*312 _0243_
*313 _0244_
*314 _0245_
*315 _0246_
*316 _0247_
*317 _0248_
*318 _0249_
*319 _0250_
*320 _0251_
*321 _0252_
*322 _0253_
*323 _0254_
*324 _0255_
*325 _0256_
*326 _0257_
*327 _0258_
*328 _0259_
*329 _0260_
*330 _0261_
*331 _0262_
*332 _0263_
*333 _0264_
*334 _0265_
*335 _0266_
*336 _0267_
*337 _0268_
*338 _0269_
*339 _0270_
*340 _0271_
*341 _0272_
*342 _0273_
*343 _0274_
*344 _0275_
*345 _0276_
*346 _0277_
*347 _0278_
*348 _0279_
*349 _0280_
*350 _0281_
*351 _0282_
*352 _0283_
*353 _0284_
*354 _0285_
*355 _0286_
*356 _0287_
*357 _0288_
*358 _0289_
*359 _0290_
*360 _0291_
*361 _0292_
*362 _0293_
*363 _0294_
*364 _0295_
*365 _0296_
*366 _0297_
*367 _0298_
*368 _0299_
*369 _0300_
*370 _0301_
*371 _0302_
*372 _0303_
*373 _0304_
*374 _0305_
*375 _0306_
*376 _0307_
*377 _0308_
*378 _0309_
*379 _0310_
*380 _0311_
*381 _0312_
*382 _0313_
*383 _0314_
*384 _0315_
*385 _0316_
*386 _0317_
*387 _0318_
*388 _0319_
*389 _0320_
*390 _0321_
*391 _0322_
*392 _0323_
*393 _0324_
*394 _0325_
*395 _0326_
*396 _0327_
*397 _0328_
*398 _0329_
*399 _0330_
*400 _0331_
*401 _0332_
*402 _0333_
*403 _0334_
*404 _0335_
*405 _0336_
*406 _0337_
*407 _0338_
*408 _0339_
*409 _0340_
*410 _0341_
*411 _0342_
*412 _0343_
*413 _0344_
*414 _0345_
*415 _0346_
*416 _0347_
*417 _0348_
*418 _0349_
*419 _0350_
*420 _0351_
*421 _0352_
*422 _0353_
*423 _0354_
*424 _0355_
*425 _0356_
*426 _0357_
*427 _0358_
*428 _0359_
*429 _0360_
*430 _0361_
*431 _0362_
*432 _0363_
*433 _0364_
*434 _0365_
*435 _0366_
*436 _0367_
*437 _0368_
*438 _0369_
*439 _0370_
*440 _0371_
*441 _0372_
*442 _0373_
*443 _0374_
*444 _0375_
*445 _0376_
*446 _0377_
*447 _0378_
*448 _0379_
*449 _0380_
*450 _0381_
*451 _0382_
*452 _0383_
*453 _0384_
*454 _0385_
*455 _0386_
*456 _0387_
*457 _0388_
*458 _0389_
*459 _0390_
*460 _0391_
*461 _0392_
*462 _0393_
*463 _0394_
*464 _0395_
*465 _0396_
*466 _0397_
*467 _0398_
*468 _0399_
*469 _0400_
*470 _0401_
*471 _0402_
*472 _0403_
*473 _0404_
*474 _0405_
*475 _0406_
*476 _0407_
*477 _0408_
*478 _0409_
*479 _0410_
*480 _0411_
*481 _0412_
*482 _0413_
*483 _0414_
*484 _0415_
*485 _0416_
*486 _0417_
*487 _0418_
*488 _0419_
*489 _0420_
*490 _0421_
*491 _0422_
*492 _0423_
*493 _0424_
*494 _0425_
*495 _0426_
*496 _0427_
*497 _0428_
*498 _0429_
*499 _0430_
*500 _0431_
*501 _0432_
*502 _0433_
*503 _0434_
*504 _0435_
*505 _0436_
*506 _0437_
*507 _0438_
*508 _0439_
*509 _0440_
*510 _0441_
*511 _0442_
*512 _0443_
*513 _0444_
*514 _0445_
*515 _0446_
*516 _0447_
*517 _0448_
*518 _0449_
*519 _0450_
*520 _0451_
*521 _0452_
*522 _0453_
*523 _0454_
*524 _0455_
*525 _0456_
*526 _0457_
*527 _0458_
*528 _0459_
*529 _0460_
*530 _0461_
*531 _0462_
*532 _0463_
*533 _0464_
*534 _0465_
*535 _0466_
*536 _0467_
*537 _0468_
*538 _0469_
*539 _0470_
*540 _0471_
*541 _0472_
*542 _0473_
*543 _0474_
*544 _0475_
*545 _0476_
*546 _0477_
*547 _0478_
*548 _0479_
*549 _0480_
*550 _0481_
*551 _0482_
*552 _0483_
*553 _0484_
*554 _0485_
*555 _0486_
*556 _0487_
*557 _0488_
*558 _0489_
*559 _0490_
*560 _0491_
*561 _0492_
*562 _0493_
*563 _0494_
*564 _0495_
*565 _0496_
*566 _0497_
*567 _0498_
*568 _0499_
*569 _0500_
*570 _0501_
*571 _0502_
*572 _0503_
*573 _0504_
*574 _0505_
*575 _0506_
*576 _0507_
*577 _0508_
*578 _0509_
*579 _0510_
*580 _0511_
*581 _0512_
*582 _0513_
*583 _0514_
*584 _0515_
*585 _0516_
*586 _0517_
*587 _0518_
*588 _0519_
*589 _0520_
*590 _0521_
*591 _0522_
*592 _0523_
*593 _0524_
*594 _0525_
*595 _0526_
*596 _0527_
*597 _0528_
*598 _0529_
*599 _0530_
*600 _0531_
*601 _0532_
*602 _0533_
*603 _0534_
*604 _0535_
*605 _0536_
*606 _0537_
*607 _0538_
*608 _0539_
*609 _0540_
*610 _0541_
*611 _0542_
*612 _0543_
*613 _0544_
*614 _0545_
*615 _0546_
*616 _0547_
*617 _0548_
*618 _0549_
*619 _0550_
*620 _0551_
*621 _0552_
*622 _0553_
*623 _0554_
*624 _0555_
*625 _0556_
*626 _0557_
*627 _0558_
*628 _0559_
*629 _0560_
*630 _0561_
*631 _0562_
*632 _0563_
*633 _0564_
*634 _0565_
*635 _0566_
*636 _0567_
*637 _0568_
*638 _0569_
*639 _0570_
*640 _0571_
*641 _0572_
*642 _0573_
*643 _0574_
*644 _0575_
*645 _0576_
*646 _0577_
*647 _0578_
*648 _0579_
*649 _0580_
*650 _0581_
*651 _0582_
*652 _0583_
*653 _0584_
*654 _0585_
*655 _0586_
*656 _0587_
*657 _0588_
*658 _0589_
*659 _0590_
*660 _0591_
*661 _0592_
*662 _0593_
*663 _0594_
*664 _0595_
*665 _0596_
*666 _0597_
*667 _0598_
*668 _0599_
*669 _0600_
*670 _0601_
*671 _0602_
*672 _0603_
*673 _0604_
*674 _0605_
*675 _0606_
*676 _0607_
*677 _0608_
*678 _0609_
*679 _0610_
*680 _0611_
*681 _0612_
*682 _0613_
*683 _0614_
*684 _0615_
*685 _0616_
*686 _0617_
*687 _0618_
*688 _0619_
*689 _0620_
*690 _0621_
*691 _0622_
*692 _0623_
*693 _0624_
*694 _0625_
*695 _0626_
*696 _0627_
*697 _0628_
*698 _0629_
*699 _0630_
*700 _0631_
*701 _0632_
*702 _0633_
*703 _0634_
*704 _0635_
*705 _0636_
*706 _0637_
*707 _0638_
*708 _0639_
*709 _0640_
*710 _0641_
*711 _0642_
*712 _0643_
*713 _0644_
*714 _0645_
*715 _0646_
*716 _0647_
*717 _0648_
*718 _0649_
*719 _0650_
*720 _0651_
*721 _0652_
*722 _0653_
*723 _0654_
*724 _0655_
*725 _0656_
*726 _0657_
*727 _0658_
*728 _0659_
*729 _0660_
*730 _0661_
*731 _0662_
*732 _0663_
*733 _0664_
*734 _0665_
*735 _0666_
*736 _0667_
*737 _0668_
*738 _0669_
*739 _0670_
*740 _0671_
*741 _0672_
*742 _0673_
*743 _0674_
*744 _0675_
*745 _0676_
*746 _0677_
*747 _0678_
*748 _0679_
*749 _0680_
*750 _0681_
*751 _0682_
*752 _0683_
*753 _0684_
*754 _0685_
*755 _0686_
*756 _0687_
*757 _0688_
*758 _0689_
*759 _0690_
*760 _0691_
*761 _0692_
*762 _0693_
*763 _0694_
*764 _0695_
*765 _0696_
*766 _0697_
*767 _0698_
*768 _0699_
*769 _0700_
*770 _0701_
*771 _0702_
*772 _0703_
*773 _0704_
*774 _0705_
*775 _0706_
*776 _0707_
*777 _0708_
*778 _0709_
*779 _0710_
*780 _0711_
*781 _0712_
*782 _0713_
*783 _0714_
*784 _0715_
*785 _0716_
*786 _0717_
*787 _0718_
*788 _0719_
*789 _0720_
*790 _0721_
*791 _0722_
*792 _0723_
*793 _0724_
*794 _0725_
*795 _0726_
*796 _0727_
*797 _0728_
*798 _0729_
*799 _0730_
*800 _0731_
*801 _0732_
*802 _0733_
*803 _0734_
*804 _0735_
*805 _0736_
*806 _0737_
*807 _0738_
*808 _0739_
*809 _0740_
*810 _0741_
*811 _0742_
*812 _0743_
*813 _0744_
*814 _0745_
*815 _0746_
*816 _0747_
*817 _0748_
*818 _0749_
*819 _0750_
*820 _0751_
*821 _0752_
*822 _0753_
*823 _0754_
*824 _0755_
*825 _0756_
*826 _0757_
*827 _0758_
*828 _0759_
*829 _0760_
*830 _0761_
*831 _0762_
*832 _0763_
*833 _0764_
*834 _0765_
*835 _0766_
*836 _0767_
*837 _0768_
*838 _0769_
*839 _0770_
*840 _0771_
*841 _0772_
*842 _0773_
*843 _0774_
*844 _0775_
*845 _0776_
*846 _0777_
*847 _0778_
*848 _0779_
*849 _0780_
*850 _0781_
*851 _0782_
*852 _0783_
*853 _0784_
*854 _0785_
*855 _0786_
*856 _0787_
*857 _0788_
*858 _0789_
*859 _0790_
*860 _0791_
*861 _0792_
*862 _0793_
*863 _0794_
*864 _0795_
*865 _0796_
*866 _0797_
*867 _0798_
*868 _0799_
*869 _0800_
*870 _0801_
*871 _0802_
*872 _0803_
*873 _0804_
*874 _0805_
*875 _0806_
*876 _0807_
*877 _0808_
*878 _0809_
*879 _0810_
*880 _0811_
*881 _0812_
*882 _0813_
*883 _0814_
*884 _0815_
*885 _0816_
*886 _0817_
*887 _0818_
*888 _0819_
*889 _0820_
*890 _0821_
*891 _0822_
*892 _0823_
*893 _0824_
*894 _0825_
*895 _0826_
*896 _0827_
*897 _0828_
*898 _0829_
*899 _0830_
*900 _0831_
*901 _0832_
*902 _0833_
*903 _0834_
*904 _0835_
*905 _0836_
*906 _0837_
*907 _0838_
*908 _0839_
*909 _0840_
*910 _0841_
*911 _0842_
*912 _0843_
*913 _0844_
*914 _0845_
*915 _0846_
*916 _0847_
*917 _0848_
*918 _0849_
*919 _0850_
*920 _0851_
*921 _0852_
*922 _0853_
*923 _0854_
*924 _0855_
*925 _0856_
*926 _0857_
*927 _0858_
*928 _0859_
*929 _0860_
*930 _0861_
*931 _0862_
*932 _0863_
*933 _0864_
*934 _0865_
*935 _0866_
*936 _0867_
*937 _0868_
*938 _0869_
*939 _0870_
*940 _0871_
*941 _0872_
*942 _0873_
*943 _0874_
*944 _0875_
*945 _0876_
*946 _0877_
*947 _0878_
*948 _0879_
*949 _0880_
*950 _0881_
*951 _0882_
*952 _0883_
*953 _0884_
*954 _0885_
*955 _0886_
*956 _0887_
*957 _0888_
*958 _0889_
*959 _0890_
*960 _0891_
*961 _0892_
*962 _0893_
*963 _0894_
*964 _0895_
*965 _0896_
*966 _0897_
*967 _0898_
*968 _0899_
*969 _0900_
*970 _0901_
*971 _0902_
*972 _0903_
*973 _0904_
*974 _0905_
*975 _0906_
*976 _0907_
*977 _0908_
*978 _0909_
*979 _0910_
*980 _0911_
*981 _0912_
*982 _0913_
*983 _0914_
*984 _0915_
*985 _0916_
*986 _0917_
*987 _0918_
*988 _0919_
*989 _0920_
*990 _0921_
*991 _0922_
*992 _0923_
*993 _0924_
*994 _0925_
*995 _0926_
*996 _0927_
*997 _0928_
*998 _0929_
*999 _0930_
*1000 _0931_
*1001 _0932_
*1002 _0933_
*1003 _0934_
*1004 _0935_
*1005 _0936_
*1006 _0937_
*1007 _0938_
*1008 _0939_
*1009 _0940_
*1010 _0941_
*1011 _0942_
*1012 _0943_
*1013 _0944_
*1014 _0945_
*1015 _0946_
*1016 _0947_
*1017 _0948_
*1018 _0949_
*1019 _0950_
*1020 _0951_
*1021 _0952_
*1022 _0953_
*1023 _0954_
*1024 _0955_
*1025 _0956_
*1026 _0957_
*1027 _0958_
*1028 _0959_
*1029 _0960_
*1030 _0961_
*1031 _0962_
*1032 _0963_
*1033 _0964_
*1034 _0965_
*1035 _0966_
*1036 _0967_
*1037 _0968_
*1038 _0969_
*1039 _0970_
*1040 _0971_
*1041 _0972_
*1042 _0973_
*1043 _0974_
*1044 _0975_
*1045 _0976_
*1046 _0977_
*1047 _0978_
*1048 _0979_
*1049 _0980_
*1050 _0981_
*1051 _0982_
*1052 _0983_
*1053 _0984_
*1054 _0985_
*1055 _0986_
*1056 _0987_
*1057 _0988_
*1058 _0989_
*1059 _0990_
*1060 _0991_
*1061 _0992_
*1062 _0993_
*1063 _0994_
*1064 _0995_
*1065 _0996_
*1066 _0997_
*1067 _0998_
*1068 _0999_
*1069 _1000_
*1070 _1001_
*1071 _1002_
*1072 _1003_
*1073 _1004_
*1074 _1005_
*1075 _1006_
*1076 _1007_
*1077 _1008_
*1078 _1009_
*1079 _1010_
*1080 _1011_
*1081 _1012_
*1082 _1013_
*1083 _1014_
*1084 _1015_
*1085 _1016_
*1086 _1017_
*1087 _1018_
*1088 _1019_
*1089 _1020_
*1090 _1021_
*1091 _1022_
*1092 _1023_
*1093 _1024_
*1094 _1025_
*1095 _1026_
*1096 _1027_
*1097 _1028_
*1098 _1029_
*1099 _1030_
*1100 _1031_
*1101 _1032_
*1102 _1033_
*1103 _1034_
*1104 _1035_
*1105 _1036_
*1106 _1037_
*1107 _1038_
*1108 _1039_
*1109 _1040_
*1110 _1041_
*1111 _1042_
*1112 _1043_
*1113 _1044_
*1114 _1045_
*1115 _1046_
*1116 _1047_
*1117 _1048_
*1118 _1049_
*1119 _1050_
*1120 _1051_
*1121 _1052_
*1122 _1053_
*1123 _1054_
*1124 _1055_
*1125 _1056_
*1126 _1057_
*1127 _1058_
*1128 _1059_
*1129 _1060_
*1130 _1061_
*1131 _1062_
*1132 _1063_
*1133 _1064_
*1134 _1065_
*1135 _1066_
*1136 _1067_
*1137 _1068_
*1138 _1069_
*1139 _1070_
*1140 _1071_
*1141 _1072_
*1142 _1073_
*1143 _1074_
*1144 _1075_
*1145 _1076_
*1146 _1077_
*1147 _1078_
*1148 _1079_
*1149 _1080_
*1150 _1081_
*1151 _1082_
*1152 _1083_
*1153 _1084_
*1154 _1085_
*1155 _1086_
*1156 _1087_
*1157 _1088_
*1158 _1089_
*1159 _1090_
*1160 _1091_
*1161 _1092_
*1162 _1093_
*1163 _1094_
*1164 _1095_
*1165 _1096_
*1166 _1097_
*1167 _1098_
*1168 _1099_
*1169 _1100_
*1170 _1101_
*1171 _1102_
*1172 _1103_
*1173 _1104_
*1174 _1105_
*1175 _1106_
*1176 _1107_
*1177 _1108_
*1178 _1109_
*1179 _1110_
*1180 _1111_
*1181 _1112_
*1182 _1113_
*1183 _1114_
*1184 _1115_
*1185 _1116_
*1186 _1117_
*1187 _1118_
*1188 _1119_
*1189 _1120_
*1190 _1121_
*1191 _1122_
*1192 _1123_
*1193 _1124_
*1194 _1125_
*1195 _1126_
*1196 _1127_
*1197 _1128_
*1198 _1129_
*1199 _1130_
*1200 _1131_
*1201 _1132_
*1202 _1133_
*1203 _1134_
*1204 _1135_
*1205 _1136_
*1206 _1137_
*1207 _1138_
*1208 _1139_
*1209 _1140_
*1210 _1141_
*1211 _1142_
*1212 _1143_
*1213 _1144_
*1214 _1145_
*1215 _1146_
*1216 _1147_
*1217 _1148_
*1218 _1149_
*1219 _1150_
*1220 _1151_
*1221 _1152_
*1222 _1153_
*1223 _1154_
*1224 _1155_
*1225 _1156_
*1226 _1157_
*1227 _1158_
*1228 _1159_
*1229 _1160_
*1230 _1161_
*1231 _1162_
*1232 _1163_
*1233 _1164_
*1234 _1165_
*1235 _1166_
*1236 _1167_
*1237 _1168_
*1238 _1169_
*1239 _1170_
*1240 _1171_
*1241 _1172_
*1242 _1173_
*1243 _1174_
*1244 _1175_
*1245 _1176_
*1246 _1177_
*1247 _1178_
*1248 _1179_
*1249 _1180_
*1250 _1181_
*1251 _1182_
*1252 _1183_
*1253 _1184_
*1254 _1185_
*1255 _1186_
*1256 _1187_
*1257 _1188_
*1258 _1189_
*1259 _1190_
*1260 _1191_
*1261 _1192_
*1262 _1193_
*1263 _1194_
*1264 _1195_
*1265 _1196_
*1266 _1197_
*1267 _1198_
*1268 _1199_
*1269 _1200_
*1270 _1201_
*1271 _1202_
*1272 _1203_
*1273 _1204_
*1274 _1205_
*1275 _1206_
*1276 _1207_
*1277 _1208_
*1278 _1209_
*1279 _1210_
*1280 _1211_
*1281 _1212_
*1282 _1213_
*1283 _1214_
*1284 _1215_
*1285 _1216_
*1286 _1217_
*1287 _1218_
*1288 _1219_
*1289 _1220_
*1290 _1221_
*1291 _1222_
*1292 _1223_
*1293 _1224_
*1294 _1225_
*1295 _1226_
*1296 _1227_
*1297 _1228_
*1298 _1229_
*1299 _1230_
*1300 _1231_
*1301 _1232_
*1302 _1233_
*1303 _1234_
*1304 _1235_
*1305 _1236_
*1306 _1237_
*1307 _1238_
*1308 _1239_
*1309 _1240_
*1310 _1241_
*1311 _1242_
*1312 _1243_
*1313 _1244_
*1314 _1245_
*1315 _1246_
*1316 _1247_
*1317 _1248_
*1318 _1249_
*1319 _1250_
*1320 _1251_
*1321 _1252_
*1322 _1253_
*1323 _1254_
*1324 _1255_
*1325 _1256_
*1326 _1257_
*1327 _1258_
*1328 _1259_
*1329 _1260_
*1330 _1261_
*1331 _1262_
*1332 _1263_
*1333 _1264_
*1334 _1265_
*1335 _1266_
*1336 _1267_
*1337 _1268_
*1338 _1269_
*1339 _1270_
*1340 _1271_
*1341 _1272_
*1342 _1273_
*1343 _1274_
*1344 _1275_
*1345 _1276_
*1346 _1277_
*1347 _1278_
*1348 _1279_
*1349 _1280_
*1350 _1281_
*1351 _1282_
*1352 _1283_
*1353 _1284_
*1354 _1285_
*1355 _1286_
*1356 _1287_
*1357 _1288_
*1358 _1289_
*1359 _1290_
*1360 _1291_
*1361 _1292_
*1362 _1293_
*1363 _1294_
*1364 _1295_
*1365 _1296_
*1366 _1297_
*1367 _1298_
*1368 _1299_
*1369 _1300_
*1370 _1301_
*1371 _1302_
*1372 _1303_
*1373 _1304_
*1374 _1305_
*1375 _1306_
*1376 _1307_
*1377 _1308_
*1378 _1309_
*1379 _1310_
*1380 _1311_
*1381 _1312_
*1382 _1313_
*1383 _1314_
*1384 _1315_
*1385 _1316_
*1386 _1317_
*1387 _1318_
*1388 _1319_
*1389 _1320_
*1390 _1321_
*1391 _1322_
*1392 _1323_
*1393 _1324_
*1394 _1325_
*1395 _1326_
*1396 _1327_
*1397 _1328_
*1398 _1329_
*1399 _1330_
*1400 _1331_
*1401 _1332_
*1402 _1333_
*1403 _1334_
*1404 _1335_
*1405 _1336_
*1406 _1337_
*1407 _1338_
*1408 _1339_
*1409 _1340_
*1410 _1341_
*1411 _1342_
*1412 _1343_
*1413 _1344_
*1414 _1345_
*1415 _1346_
*1416 _1347_
*1417 _1348_
*1418 _1349_
*1419 _1350_
*1420 _1351_
*1421 _1352_
*1422 _1353_
*1423 _1354_
*1424 _1355_
*1425 _1356_
*1426 _1357_
*1427 _1358_
*1428 _1359_
*1429 _1360_
*1430 _1361_
*1431 _1362_
*1432 _1363_
*1433 _1364_
*1434 _1365_
*1435 _1366_
*1436 _1367_
*1437 _1368_
*1438 _1369_
*1439 _1370_
*1440 _1371_
*1441 _1372_
*1442 _1373_
*1443 _1374_
*1444 _1375_
*1445 _1376_
*1446 _1377_
*1447 _1378_
*1448 _1379_
*1449 _1380_
*1450 _1381_
*1451 _1382_
*1452 _1383_
*1453 _1384_
*1454 _1385_
*1455 _1386_
*1456 _1387_
*1457 _1388_
*1458 _1389_
*1459 _1390_
*1460 _1391_
*1461 _1392_
*1462 _1393_
*1463 _1394_
*1464 _1395_
*1465 _1396_
*1466 _1397_
*1467 _1398_
*1468 _1399_
*1469 _1400_
*1470 _1401_
*1471 _1402_
*1472 _1403_
*1473 _1404_
*1474 _1405_
*1475 _1406_
*1476 _1407_
*1477 _1408_
*1478 _1409_
*1479 _1410_
*1480 _1411_
*1481 _1412_
*1482 _1413_
*1483 _1414_
*1484 _1415_
*1485 _1416_
*1486 _1417_
*1487 _1418_
*1488 _1419_
*1489 _1420_
*1490 _1421_
*1491 _1422_
*1492 _1423_
*1493 _1424_
*1494 _1425_
*1495 _1426_
*1496 _1427_
*1497 _1428_
*1498 _1429_
*1499 _1430_
*1500 _1431_
*1501 _1432_
*1502 _1433_
*1503 _1434_
*1504 _1435_
*1505 _1436_
*1506 _1437_
*1507 _1438_
*1508 _1439_
*1509 _1440_
*1510 _1441_
*1511 _1442_
*1512 _1443_
*1513 _1444_
*1514 _1445_
*1515 _1446_
*1516 _1447_
*1517 _1448_
*1518 _1449_
*1519 _1450_
*1520 _1451_
*1521 _1452_
*1522 _1453_
*1523 _1454_
*1524 _1455_
*1525 _1456_
*1526 _1457_
*1527 _1458_
*1528 _1459_
*1529 _1460_
*1530 _1461_
*1531 _1462_
*1532 _1463_
*1533 _1464_
*1534 _1465_
*1535 _1466_
*1536 _1467_
*1537 _1468_
*1538 _1469_
*1539 _1470_
*1540 _1471_
*1541 _1472_
*1542 _1473_
*1543 _1474_
*1544 _1475_
*1545 _1476_
*1546 _1477_
*1547 _1478_
*1548 _1479_
*1549 _1480_
*1550 _1481_
*1551 _1482_
*1552 _1483_
*1553 _1484_
*1554 _1485_
*1555 _1486_
*1556 _1487_
*1557 _1488_
*1558 _1489_
*1559 _1490_
*1560 _1491_
*1561 _1492_
*1562 _1493_
*1563 _1494_
*1564 _1495_
*1565 _1496_
*1566 _1497_
*1567 _1498_
*1568 _1499_
*1569 _1500_
*1570 _1501_
*1571 _1502_
*1572 _1503_
*1573 _1504_
*1574 _1505_
*1575 _1506_
*1576 _1507_
*1577 _1508_
*1578 _1509_
*1579 _1510_
*1580 _1511_
*1581 _1512_
*1582 _1513_
*1583 _1514_
*1584 _1515_
*1585 _1516_
*1586 _1517_
*1587 _1518_
*1588 _1519_
*1589 _1520_
*1590 _1521_
*1591 _1522_
*1592 _1523_
*1593 _1524_
*1594 _1525_
*1595 _1526_
*1596 _1527_
*1597 _1528_
*1598 _1529_
*1599 _1530_
*1600 _1531_
*1601 _1532_
*1602 _1533_
*1603 _1534_
*1604 _1535_
*1605 _1536_
*1606 _1537_
*1607 _1538_
*1608 _1539_
*1609 _1540_
*1610 _1541_
*1611 _1542_
*1612 _1543_
*1613 _1544_
*1614 _1545_
*1615 _1546_
*1616 _1547_
*1617 _1548_
*1618 _1549_
*1619 _1550_
*1620 _1551_
*1621 _1552_
*1622 _1553_
*1623 _1554_
*1624 _1555_
*1625 _1556_
*1626 _1557_
*1627 _1558_
*1628 _1559_
*1629 _1560_
*1630 _1561_
*1631 _1562_
*1632 _1563_
*1633 _1564_
*1634 _1565_
*1635 _1566_
*1636 _1567_
*1637 _1568_
*1638 _1569_
*1639 _1570_
*1640 _1571_
*1641 _1572_
*1642 _1573_
*1643 _1574_
*1644 _1575_
*1645 _1576_
*1646 _1577_
*1647 _1578_
*1648 _1579_
*1649 _1580_
*1650 _1581_
*1651 _1582_
*1652 _1583_
*1653 _1584_
*1654 _1585_
*1655 _1586_
*1656 _1587_
*1657 _1588_
*1658 _1589_
*1659 _1590_
*1660 _1591_
*1661 _1592_
*1662 _1593_
*1663 _1594_
*1664 _1595_
*1665 _1596_
*1666 _1597_
*1667 _1598_
*1668 _1599_
*1669 _1600_
*1670 _1601_
*1671 _1602_
*1672 _1603_
*1673 _1604_
*1674 _1605_
*1675 _1606_
*1676 _1607_
*1677 _1608_
*1678 _1609_
*1679 _1610_
*1680 _1611_
*1681 _1612_
*1682 _1613_
*1683 _1614_
*1684 _1615_
*1685 _1616_
*1686 _1617_
*1687 _1618_
*1688 _1619_
*1689 _1620_
*1690 _1621_
*1691 _1622_
*1692 _1623_
*1693 _1624_
*1694 _1625_
*1695 _1626_
*1696 _1627_
*1697 _1628_
*1698 _1629_
*1699 _1630_
*1700 _1631_
*1701 _1632_
*1702 _1633_
*1703 _1634_
*1704 _1635_
*1705 _1636_
*1706 _1637_
*1707 _1638_
*1708 _1639_
*1709 _1640_
*1710 _1641_
*1711 _1642_
*1712 _1643_
*1713 _1644_
*1714 _1645_
*1715 _1646_
*1716 _1647_
*1717 _1648_
*1718 _1649_
*1719 _1650_
*1720 _1651_
*1721 _1652_
*1722 _1653_
*1723 _1654_
*1724 _1655_
*1725 _1656_
*1726 _1657_
*1727 _1658_
*1728 _1659_
*1729 _1660_
*1730 _1661_
*1731 _1662_
*1732 _1663_
*1733 _1664_
*1734 _1665_
*1735 _1666_
*1736 _1667_
*1737 _1668_
*1738 _1669_
*1739 _1670_
*1740 _1671_
*1741 _1672_
*1742 _1673_
*1743 _1674_
*1744 _1675_
*1745 _1676_
*1746 _1677_
*1747 _1678_
*1748 _1679_
*1749 _1680_
*1750 _1681_
*1751 _1682_
*1752 _1683_
*1753 _1684_
*1754 _1685_
*1755 _1686_
*1756 _1687_
*1757 _1688_
*1758 _1689_
*1759 _1690_
*1760 _1691_
*1761 _1692_
*1762 _1693_
*1763 _1694_
*1764 _1695_
*1765 _1696_
*1766 _1697_
*1767 _1698_
*1768 _1699_
*1769 _1700_
*1770 _1701_
*1771 _1702_
*1772 _1703_
*1773 _1704_
*1774 _1705_
*1775 _1706_
*1776 _1707_
*1777 _1708_
*1778 _1709_
*1779 _1710_
*1780 _1711_
*1781 _1712_
*1782 _1713_
*1783 _1714_
*1784 _1715_
*1785 _1716_
*1786 _1717_
*1787 _1718_
*1788 _1719_
*1789 _1720_
*1790 _1721_
*1791 _1722_
*1792 _1723_
*1793 _1724_
*1794 _1725_
*1795 _1726_
*1796 _1727_
*1797 _1728_
*1798 _1729_
*1799 _1730_
*1800 _1731_
*1801 _1732_
*1802 _1733_
*1803 _1734_
*1804 _1735_
*1805 _1736_
*1806 _1737_
*1807 _1738_
*1808 _1739_
*1809 _1740_
*1810 _1741_
*1811 _1742_
*1812 _1743_
*1813 _1744_
*1814 _1745_
*1815 _1746_
*1816 _1747_
*1817 _1748_
*1818 _1749_
*1819 _1750_
*1820 _1751_
*1821 _1752_
*1822 _1753_
*1823 _1754_
*1824 _1755_
*1825 _1756_
*1826 _1757_
*1827 _1758_
*1828 _1759_
*1829 _1760_
*1830 _1761_
*1831 _1762_
*1832 _1763_
*1833 _1764_
*1834 _1765_
*1835 _1766_
*1836 _1767_
*1837 _1768_
*1838 _1769_
*1839 _1770_
*1840 _1771_
*1841 _1772_
*1842 _1773_
*1843 _1774_
*1844 _1775_
*1845 _1776_
*1846 _1777_
*1847 _1778_
*1848 _1779_
*1849 _1780_
*1850 _1781_
*1851 _1782_
*1852 _1783_
*1853 _1784_
*1854 _1785_
*1855 _1786_
*1856 _1787_
*1857 _1788_
*1858 _1789_
*1859 _1790_
*1860 _1791_
*1861 _1792_
*1862 _1793_
*1863 _1794_
*1864 _1795_
*1865 _1796_
*1866 _1797_
*1867 _1798_
*1868 _1799_
*1869 _1800_
*1870 _1801_
*1871 _1802_
*1872 _1803_
*1873 _1804_
*1874 _1805_
*1875 _1806_
*1876 _1807_
*1877 _1808_
*1878 _1809_
*1879 _1810_
*1880 _1811_
*1881 _1812_
*1882 _1813_
*1883 _1814_
*1884 _1815_
*1885 _1816_
*1886 _1817_
*1887 _1818_
*1888 _1819_
*1889 _1820_
*1890 _1821_
*1891 _1822_
*1892 _1823_
*1893 _1824_
*1894 _1825_
*1895 _1826_
*1896 _1827_
*1897 _1828_
*1898 _1829_
*1899 _1830_
*1900 _1831_
*1901 _1832_
*1902 _1833_
*1903 _1834_
*1904 _1835_
*1905 _1836_
*1906 _1837_
*1907 _1838_
*1908 _1839_
*1909 _1840_
*1910 _1841_
*1911 _1842_
*1912 _1843_
*1913 _1844_
*1914 _1845_
*1915 _1846_
*1916 _1847_
*1917 _1848_
*1918 _1849_
*1919 _1850_
*1920 _1851_
*1921 _1852_
*1922 _1853_
*1923 _1854_
*1924 _1855_
*1925 _1856_
*1926 _1857_
*1927 _1858_
*1928 _1859_
*1929 _1860_
*1930 _1861_
*1931 _1862_
*1932 _1863_
*1933 _1864_
*1934 _1865_
*1935 _1866_
*1936 _1867_
*1937 _1868_
*1938 _1869_
*1939 _1870_
*1940 _1871_
*1941 _1872_
*1942 _1873_
*1943 _1874_
*1944 _1875_
*1945 _1876_
*1946 _1877_
*1947 _1878_
*1948 _1879_
*1949 _1880_
*1950 _1881_
*1951 _1882_
*1952 _1883_
*1953 _1884_
*1954 _1885_
*1955 _1886_
*1956 _1887_
*1957 _1888_
*1958 _1889_
*1959 _1890_
*1960 _1891_
*1961 _1892_
*1962 _1893_
*1963 _1894_
*1964 _1895_
*1965 _1896_
*1966 _1897_
*1967 _1898_
*1968 _1899_
*1969 _1900_
*1970 _1901_
*1971 _1902_
*1972 _1903_
*1973 _1904_
*1974 _1905_
*1975 _1906_
*1976 _1907_
*1977 _1908_
*1978 _1909_
*1979 _1910_
*1980 _1911_
*1981 _1912_
*1982 _1913_
*1983 _1914_
*1984 _1915_
*1985 _1916_
*1986 _1917_
*1987 _1918_
*1988 _1919_
*1989 _1920_
*1990 _1921_
*1991 _1922_
*1992 _1923_
*1993 _1924_
*1994 _1925_
*1995 _1926_
*1996 _1927_
*1997 _1928_
*1998 _1929_
*1999 _1930_
*2000 _1931_
*2001 _1932_
*2002 _1933_
*2003 _1934_
*2004 _1935_
*2005 _1936_
*2006 _1937_
*2007 _1938_
*2008 _1939_
*2009 _1940_
*2010 _1941_
*2011 _1942_
*2012 _1943_
*2013 _1944_
*2014 _1945_
*2015 _1946_
*2016 _1947_
*2017 _1948_
*2018 _1949_
*2019 _1950_
*2020 _1951_
*2021 _1952_
*2022 _1953_
*2023 _1954_
*2024 _1955_
*2025 _1956_
*2026 _1957_
*2027 _1958_
*2028 _1959_
*2029 _1960_
*2030 _1961_
*2031 _1962_
*2032 _1963_
*2033 _1964_
*2034 _1965_
*2035 _1966_
*2036 _1967_
*2037 _1968_
*2038 _1969_
*2039 _1970_
*2040 _1971_
*2041 _1972_
*2042 _1973_
*2043 _1974_
*2044 _1975_
*2045 _1976_
*2046 _1977_
*2047 _1978_
*2048 _1979_
*2049 _1980_
*2050 _1981_
*2051 _1982_
*2052 _1983_
*2053 _1984_
*2054 _1985_
*2055 _1986_
*2056 _1987_
*2057 _1988_
*2058 _1989_
*2059 _1990_
*2060 _1991_
*2061 _1992_
*2062 _1993_
*2063 _1994_
*2064 _1995_
*2065 _1996_
*2066 _1997_
*2067 _1998_
*2068 _1999_
*2069 _2000_
*2070 _2001_
*2071 _2002_
*2072 _2003_
*2073 _2004_
*2074 _2005_
*2075 _2006_
*2076 _2007_
*2077 _2008_
*2078 _2009_
*2079 _2010_
*2080 _2011_
*2081 _2012_
*2082 _2013_
*2083 _2014_
*2084 _2015_
*2085 _2016_
*2086 _2017_
*2087 _2018_
*2088 _2019_
*2089 _2020_
*2090 _2021_
*2091 _2022_
*2092 _2023_
*2093 _2024_
*2094 _2025_
*2095 _2026_
*2096 _2027_
*2097 _2028_
*2098 _2029_
*2099 _2030_
*2100 _2031_
*2101 _2032_
*2102 _2033_
*2103 _2034_
*2104 _2035_
*2105 _2036_
*2106 _2037_
*2107 _2038_
*2108 _2039_
*2109 _2040_
*2110 _2041_
*2111 _2042_
*2112 _2043_
*2113 _2044_
*2114 _2045_
*2115 _2046_
*2116 _2047_
*2117 _2048_
*2118 _2049_
*2119 _2050_
*2120 _2051_
*2121 _2052_
*2122 _2053_
*2123 _2054_
*2124 _2055_
*2125 _2056_
*2126 _2057_
*2127 _2058_
*2128 _2059_
*2129 _2060_
*2130 _2061_
*2131 _2062_
*2132 _2063_
*2133 _2064_
*2134 _2065_
*2135 _2066_
*2136 _2067_
*2137 _2068_
*2138 _2069_
*2139 _2070_
*2140 _2071_
*2141 _2072_
*2142 _2073_
*2143 _2074_
*2144 _2075_
*2145 _2076_
*2146 _2077_
*2147 _2078_
*2148 _2079_
*2149 _2080_
*2150 _2081_
*2151 _2082_
*2152 _2083_
*2153 _2084_
*2154 _2085_
*2155 _2086_
*2156 _2087_
*2157 _2088_
*2158 _2089_
*2159 _2090_
*2160 _2091_
*2161 _2092_
*2162 _2093_
*2163 _2094_
*2164 _2095_
*2165 _2096_
*2166 _2097_
*2167 _2098_
*2168 _2099_
*2169 _2100_
*2170 _2101_
*2171 _2102_
*2172 _2103_
*2173 _2104_
*2174 _2105_
*2175 _2106_
*2176 _2107_
*2177 _2108_
*2178 _2109_
*2179 _2110_
*2180 _2111_
*2181 _2112_
*2182 _2113_
*2183 _2114_
*2184 _2115_
*2185 _2116_
*2186 _2117_
*2187 _2118_
*2188 _2119_
*2189 _2120_
*2190 _2121_
*2191 _2122_
*2192 _2123_
*2193 _2124_
*2194 _2125_
*2195 _2126_
*2196 _2127_
*2197 _2128_
*2198 _2129_
*2199 _2130_
*2200 _2131_
*2201 _2132_
*2202 _2133_
*2203 _2134_
*2204 _2135_
*2205 _2136_
*2206 _2137_
*2207 _2138_
*2208 _2139_
*2209 _2140_
*2210 _2141_
*2211 _2142_
*2212 _2143_
*2213 _2144_
*2214 _2145_
*2215 _2146_
*2216 _2147_
*2217 _2148_
*2218 _2149_
*2219 _2150_
*2220 _2151_
*2221 _2152_
*2222 _2153_
*2223 _2154_
*2224 _2155_
*2225 _2156_
*2226 _2157_
*2227 _2158_
*2228 _2159_
*2229 _2160_
*2230 _2161_
*2231 _2162_
*2232 _2163_
*2233 _2164_
*2234 _2165_
*2235 _2166_
*2236 _2167_
*2237 _2168_
*2238 _2169_
*2239 _2170_
*2240 _2171_
*2241 _2172_
*2242 _2173_
*2243 _2174_
*2244 _2175_
*2245 _2176_
*2246 _2177_
*2247 _2178_
*2248 _2179_
*2249 _2180_
*2250 _2181_
*2251 _2182_
*2252 _2183_
*2253 _2184_
*2254 _2185_
*2255 _2186_
*2256 _2187_
*2257 _2188_
*2258 _2189_
*2259 _2190_
*2260 _2191_
*2261 _2192_
*2262 _2193_
*2263 _2194_
*2264 _2195_
*2265 _2196_
*2266 _2197_
*2267 _2198_
*2268 _2199_
*2269 _2200_
*2270 _2201_
*2271 _2202_
*2272 _2203_
*2273 _2204_
*2274 _2205_
*2275 _2206_
*2276 _2207_
*2277 _2208_
*2278 _2209_
*2279 _2210_
*2280 _2211_
*2281 _2212_
*2282 _2213_
*2283 _2214_
*2284 _2215_
*2285 _2216_
*2286 _2217_
*2287 _2218_
*2288 _2219_
*2289 _2220_
*2290 _2221_
*2291 _2222_
*2292 _2223_
*2293 _2224_
*2294 _2225_
*2295 _2226_
*2296 _2227_
*2297 _2228_
*2298 _2229_
*2299 _2230_
*2300 _2231_
*2301 _2232_
*2302 _2233_
*2303 _2234_
*2304 _2235_
*2305 _2236_
*2306 _2237_
*2307 _2238_
*2308 _2239_
*2309 _2240_
*2310 _2241_
*2311 _2242_
*2312 _2243_
*2313 _2244_
*2314 _2245_
*2315 _2246_
*2316 _2247_
*2317 _2248_
*2318 _2249_
*2319 _2250_
*2320 _2251_
*2321 _2252_
*2322 _2253_
*2323 _2254_
*2324 _2255_
*2325 _2256_
*2326 _2257_
*2327 _2258_
*2328 _2259_
*2329 _2260_
*2330 _2261_
*2331 _2262_
*2332 _2263_
*2333 _2264_
*2334 _2265_
*2335 _2266_
*2336 _2267_
*2337 _2268_
*2338 _2269_
*2339 _2270_
*2340 _2271_
*2341 _2272_
*2342 _2273_
*2343 _2274_
*2344 _2275_
*2345 _2276_
*2346 _2277_
*2347 _2278_
*2348 _2279_
*2349 _2280_
*2350 _2281_
*2351 _2282_
*2352 _2283_
*2353 _2284_
*2354 _2285_
*2355 _2286_
*2356 _2287_
*2357 _2288_
*2358 _2289_
*2359 _2290_
*2360 _2291_
*2361 _2292_
*2362 _2293_
*2363 _2294_
*2364 _2295_
*2365 _2296_