* NGSPICE file created from add3x64.ext - technology: sky130A

* Black-box entry subcircuit for sky130_fd_sc_hd__diode_2 abstract view
.subckt sky130_fd_sc_hd__diode_2 DIODE VGND VNB VPB VPWR
.ends

* Black-box entry subcircuit for sky130_fd_sc_hd__fill_1 abstract view
.subckt sky130_fd_sc_hd__fill_1 VGND VNB VPB VPWR
.ends

* Black-box entry subcircuit for sky130_fd_sc_hd__tapvpwrvgnd_1 abstract view
.subckt sky130_fd_sc_hd__tapvpwrvgnd_1 VGND VPWR
.ends

* Black-box entry subcircuit for sky130_fd_sc_hd__decap_3 abstract view
.subckt sky130_fd_sc_hd__decap_3 VGND VNB VPB VPWR
.ends

* Black-box entry subcircuit for sky130_fd_sc_hd__fill_2 abstract view
.subckt sky130_fd_sc_hd__fill_2 VGND VNB VPB VPWR
.ends

* Black-box entry subcircuit for sky130_ef_sc_hd__decap_12 abstract view
.subckt sky130_ef_sc_hd__decap_12 VPWR VGND VPB VNB
.ends

* Black-box entry subcircuit for sky130_fd_sc_hd__decap_4 abstract view
.subckt sky130_fd_sc_hd__decap_4 VGND VNB VPB VPWR
.ends

* Black-box entry subcircuit for sky130_fd_sc_hd__nand2_1 abstract view
.subckt sky130_fd_sc_hd__nand2_1 A B VGND VNB VPB VPWR Y
.ends

* Black-box entry subcircuit for sky130_fd_sc_hd__o22a_1 abstract view
.subckt sky130_fd_sc_hd__o22a_1 A1 A2 B1 B2 VGND VNB VPB VPWR X
.ends

* Black-box entry subcircuit for sky130_fd_sc_hd__a21o_1 abstract view
.subckt sky130_fd_sc_hd__a21o_1 A1 A2 B1 VGND VNB VPB VPWR X
.ends

* Black-box entry subcircuit for sky130_fd_sc_hd__nor3_1 abstract view
.subckt sky130_fd_sc_hd__nor3_1 A B C VGND VNB VPB VPWR Y
.ends

* Black-box entry subcircuit for sky130_fd_sc_hd__decap_8 abstract view
.subckt sky130_fd_sc_hd__decap_8 VGND VNB VPB VPWR
.ends

* Black-box entry subcircuit for sky130_fd_sc_hd__a211o_1 abstract view
.subckt sky130_fd_sc_hd__a211o_1 A1 A2 B1 C1 VGND VNB VPB VPWR X
.ends

* Black-box entry subcircuit for sky130_fd_sc_hd__o21ai_1 abstract view
.subckt sky130_fd_sc_hd__o21ai_1 A1 A2 B1 VGND VNB VPB VPWR Y
.ends

* Black-box entry subcircuit for sky130_fd_sc_hd__inv_2 abstract view
.subckt sky130_fd_sc_hd__inv_2 A VGND VNB VPB VPWR Y
.ends

* Black-box entry subcircuit for sky130_fd_sc_hd__buf_2 abstract view
.subckt sky130_fd_sc_hd__buf_2 A VGND VNB VPB VPWR X
.ends

* Black-box entry subcircuit for sky130_fd_sc_hd__decap_6 abstract view
.subckt sky130_fd_sc_hd__decap_6 VGND VNB VPB VPWR
.ends

* Black-box entry subcircuit for sky130_fd_sc_hd__nor2_1 abstract view
.subckt sky130_fd_sc_hd__nor2_1 A B VGND VNB VPB VPWR Y
.ends

* Black-box entry subcircuit for sky130_fd_sc_hd__a21oi_1 abstract view
.subckt sky130_fd_sc_hd__a21oi_1 A1 A2 B1 VGND VNB VPB VPWR Y
.ends

* Black-box entry subcircuit for sky130_fd_sc_hd__clkbuf_8 abstract view
.subckt sky130_fd_sc_hd__clkbuf_8 A VGND VNB VPB VPWR X
.ends

* Black-box entry subcircuit for sky130_fd_sc_hd__nand3_1 abstract view
.subckt sky130_fd_sc_hd__nand3_1 A B C VGND VNB VPB VPWR Y
.ends

* Black-box entry subcircuit for sky130_fd_sc_hd__o21a_1 abstract view
.subckt sky130_fd_sc_hd__o21a_1 A1 A2 B1 VGND VNB VPB VPWR X
.ends

* Black-box entry subcircuit for sky130_fd_sc_hd__a21o_2 abstract view
.subckt sky130_fd_sc_hd__a21o_2 A1 A2 B1 VGND VNB VPB VPWR X
.ends

* Black-box entry subcircuit for sky130_fd_sc_hd__nand3b_2 abstract view
.subckt sky130_fd_sc_hd__nand3b_2 A_N B C VGND VNB VPB VPWR Y
.ends

* Black-box entry subcircuit for sky130_fd_sc_hd__a21oi_2 abstract view
.subckt sky130_fd_sc_hd__a21oi_2 A1 A2 B1 VGND VNB VPB VPWR Y
.ends

* Black-box entry subcircuit for sky130_fd_sc_hd__and2_1 abstract view
.subckt sky130_fd_sc_hd__and2_1 A B VGND VNB VPB VPWR X
.ends

* Black-box entry subcircuit for sky130_fd_sc_hd__a31o_1 abstract view
.subckt sky130_fd_sc_hd__a31o_1 A1 A2 A3 B1 VGND VNB VPB VPWR X
.ends

* Black-box entry subcircuit for sky130_fd_sc_hd__o31ai_1 abstract view
.subckt sky130_fd_sc_hd__o31ai_1 A1 A2 A3 B1 VGND VNB VPB VPWR Y
.ends

* Black-box entry subcircuit for sky130_fd_sc_hd__a21boi_2 abstract view
.subckt sky130_fd_sc_hd__a21boi_2 A1 A2 B1_N VGND VNB VPB VPWR Y
.ends

* Black-box entry subcircuit for sky130_fd_sc_hd__clkbuf_1 abstract view
.subckt sky130_fd_sc_hd__clkbuf_1 A VGND VNB VPB VPWR X
.ends

* Black-box entry subcircuit for sky130_fd_sc_hd__buf_1 abstract view
.subckt sky130_fd_sc_hd__buf_1 A VGND VNB VPB VPWR X
.ends

* Black-box entry subcircuit for sky130_fd_sc_hd__clkbuf_2 abstract view
.subckt sky130_fd_sc_hd__clkbuf_2 A VGND VNB VPB VPWR X
.ends

* Black-box entry subcircuit for sky130_fd_sc_hd__o211ai_1 abstract view
.subckt sky130_fd_sc_hd__o211ai_1 A1 A2 B1 C1 VGND VNB VPB VPWR Y
.ends

* Black-box entry subcircuit for sky130_fd_sc_hd__nand4_1 abstract view
.subckt sky130_fd_sc_hd__nand4_1 A B C D VGND VNB VPB VPWR Y
.ends

* Black-box entry subcircuit for sky130_fd_sc_hd__o21ai_2 abstract view
.subckt sky130_fd_sc_hd__o21ai_2 A1 A2 B1 VGND VNB VPB VPWR Y
.ends

* Black-box entry subcircuit for sky130_fd_sc_hd__o221ai_2 abstract view
.subckt sky130_fd_sc_hd__o221ai_2 A1 A2 B1 B2 C1 VGND VNB VPB VPWR Y
.ends

* Black-box entry subcircuit for sky130_fd_sc_hd__o211a_1 abstract view
.subckt sky130_fd_sc_hd__o211a_1 A1 A2 B1 C1 VGND VNB VPB VPWR X
.ends

* Black-box entry subcircuit for sky130_fd_sc_hd__a21boi_1 abstract view
.subckt sky130_fd_sc_hd__a21boi_1 A1 A2 B1_N VGND VNB VPB VPWR Y
.ends

* Black-box entry subcircuit for sky130_fd_sc_hd__dfxtp_1 abstract view
.subckt sky130_fd_sc_hd__dfxtp_1 CLK D VGND VNB VPB VPWR Q
.ends

* Black-box entry subcircuit for sky130_fd_sc_hd__o31a_1 abstract view
.subckt sky130_fd_sc_hd__o31a_1 A1 A2 A3 B1 VGND VNB VPB VPWR X
.ends

* Black-box entry subcircuit for sky130_fd_sc_hd__a211oi_1 abstract view
.subckt sky130_fd_sc_hd__a211oi_1 A1 A2 B1 C1 VGND VNB VPB VPWR Y
.ends

* Black-box entry subcircuit for sky130_fd_sc_hd__dlymetal6s2s_1 abstract view
.subckt sky130_fd_sc_hd__dlymetal6s2s_1 A VGND VNB VPB VPWR X
.ends

* Black-box entry subcircuit for sky130_fd_sc_hd__o21bai_2 abstract view
.subckt sky130_fd_sc_hd__o21bai_2 A1 A2 B1_N VGND VNB VPB VPWR Y
.ends

* Black-box entry subcircuit for sky130_fd_sc_hd__o21bai_1 abstract view
.subckt sky130_fd_sc_hd__o21bai_1 A1 A2 B1_N VGND VNB VPB VPWR Y
.ends

* Black-box entry subcircuit for sky130_fd_sc_hd__o211ai_2 abstract view
.subckt sky130_fd_sc_hd__o211ai_2 A1 A2 B1 C1 VGND VNB VPB VPWR Y
.ends

* Black-box entry subcircuit for sky130_fd_sc_hd__o2111ai_4 abstract view
.subckt sky130_fd_sc_hd__o2111ai_4 A1 A2 B1 C1 D1 VGND VNB VPB VPWR Y
.ends

* Black-box entry subcircuit for sky130_fd_sc_hd__or3b_1 abstract view
.subckt sky130_fd_sc_hd__or3b_1 A B C_N VGND VNB VPB VPWR X
.ends

* Black-box entry subcircuit for sky130_fd_sc_hd__a2111oi_1 abstract view
.subckt sky130_fd_sc_hd__a2111oi_1 A1 A2 B1 C1 D1 VGND VNB VPB VPWR Y
.ends

* Black-box entry subcircuit for sky130_fd_sc_hd__and3_1 abstract view
.subckt sky130_fd_sc_hd__and3_1 A B C VGND VNB VPB VPWR X
.ends

* Black-box entry subcircuit for sky130_fd_sc_hd__nor4_1 abstract view
.subckt sky130_fd_sc_hd__nor4_1 A B C D VGND VNB VPB VPWR Y
.ends

* Black-box entry subcircuit for sky130_fd_sc_hd__a22o_1 abstract view
.subckt sky130_fd_sc_hd__a22o_1 A1 A2 B1 B2 VGND VNB VPB VPWR X
.ends

* Black-box entry subcircuit for sky130_fd_sc_hd__a22oi_2 abstract view
.subckt sky130_fd_sc_hd__a22oi_2 A1 A2 B1 B2 VGND VNB VPB VPWR Y
.ends

* Black-box entry subcircuit for sky130_fd_sc_hd__or3_1 abstract view
.subckt sky130_fd_sc_hd__or3_1 A B C VGND VNB VPB VPWR X
.ends

* Black-box entry subcircuit for sky130_fd_sc_hd__o41a_1 abstract view
.subckt sky130_fd_sc_hd__o41a_1 A1 A2 A3 A4 B1 VGND VNB VPB VPWR X
.ends

* Black-box entry subcircuit for sky130_fd_sc_hd__or2_1 abstract view
.subckt sky130_fd_sc_hd__or2_1 A B VGND VNB VPB VPWR X
.ends

* Black-box entry subcircuit for sky130_fd_sc_hd__a21bo_1 abstract view
.subckt sky130_fd_sc_hd__a21bo_1 A1 A2 B1_N VGND VNB VPB VPWR X
.ends

* Black-box entry subcircuit for sky130_fd_sc_hd__nand2_2 abstract view
.subckt sky130_fd_sc_hd__nand2_2 A B VGND VNB VPB VPWR Y
.ends

* Black-box entry subcircuit for sky130_fd_sc_hd__and4_1 abstract view
.subckt sky130_fd_sc_hd__and4_1 A B C D VGND VNB VPB VPWR X
.ends

* Black-box entry subcircuit for sky130_fd_sc_hd__clkbuf_4 abstract view
.subckt sky130_fd_sc_hd__clkbuf_4 A VGND VNB VPB VPWR X
.ends

* Black-box entry subcircuit for sky130_fd_sc_hd__or4_1 abstract view
.subckt sky130_fd_sc_hd__or4_1 A B C D VGND VNB VPB VPWR X
.ends

* Black-box entry subcircuit for sky130_fd_sc_hd__a221o_1 abstract view
.subckt sky130_fd_sc_hd__a221o_1 A1 A2 B1 B2 C1 VGND VNB VPB VPWR X
.ends

* Black-box entry subcircuit for sky130_fd_sc_hd__bufinv_16 abstract view
.subckt sky130_fd_sc_hd__bufinv_16 A VGND VNB VPB VPWR Y
.ends

* Black-box entry subcircuit for sky130_fd_sc_hd__xnor2_1 abstract view
.subckt sky130_fd_sc_hd__xnor2_1 A B VGND VNB VPB VPWR Y
.ends

* Black-box entry subcircuit for sky130_fd_sc_hd__o21bai_4 abstract view
.subckt sky130_fd_sc_hd__o21bai_4 A1 A2 B1_N VGND VNB VPB VPWR Y
.ends

* Black-box entry subcircuit for sky130_fd_sc_hd__o21ba_1 abstract view
.subckt sky130_fd_sc_hd__o21ba_1 A1 A2 B1_N VGND VNB VPB VPWR X
.ends

* Black-box entry subcircuit for sky130_fd_sc_hd__clkinvlp_4 abstract view
.subckt sky130_fd_sc_hd__clkinvlp_4 A VGND VNB VPB VPWR Y
.ends

* Black-box entry subcircuit for sky130_fd_sc_hd__o2bb2ai_1 abstract view
.subckt sky130_fd_sc_hd__o2bb2ai_1 A1_N A2_N B1 B2 VGND VNB VPB VPWR Y
.ends

* Black-box entry subcircuit for sky130_fd_sc_hd__xor2_1 abstract view
.subckt sky130_fd_sc_hd__xor2_1 A B VGND VNB VPB VPWR X
.ends

* Black-box entry subcircuit for sky130_fd_sc_hd__and2_2 abstract view
.subckt sky130_fd_sc_hd__and2_2 A B VGND VNB VPB VPWR X
.ends

* Black-box entry subcircuit for sky130_fd_sc_hd__a211oi_2 abstract view
.subckt sky130_fd_sc_hd__a211oi_2 A1 A2 B1 C1 VGND VNB VPB VPWR Y
.ends

* Black-box entry subcircuit for sky130_fd_sc_hd__clkinv_2 abstract view
.subckt sky130_fd_sc_hd__clkinv_2 A VGND VNB VPB VPWR Y
.ends

* Black-box entry subcircuit for sky130_fd_sc_hd__o2111a_1 abstract view
.subckt sky130_fd_sc_hd__o2111a_1 A1 A2 B1 C1 D1 VGND VNB VPB VPWR X
.ends

* Black-box entry subcircuit for sky130_fd_sc_hd__nand4_2 abstract view
.subckt sky130_fd_sc_hd__nand4_2 A B C D VGND VNB VPB VPWR Y
.ends

* Black-box entry subcircuit for sky130_fd_sc_hd__clkbuf_16 abstract view
.subckt sky130_fd_sc_hd__clkbuf_16 A VGND VNB VPB VPWR X
.ends

* Black-box entry subcircuit for sky130_fd_sc_hd__o2111ai_2 abstract view
.subckt sky130_fd_sc_hd__o2111ai_2 A1 A2 B1 C1 D1 VGND VNB VPB VPWR Y
.ends

* Black-box entry subcircuit for sky130_fd_sc_hd__o2bb2a_1 abstract view
.subckt sky130_fd_sc_hd__o2bb2a_1 A1_N A2_N B1 B2 VGND VNB VPB VPWR X
.ends

* Black-box entry subcircuit for sky130_fd_sc_hd__nand2b_1 abstract view
.subckt sky130_fd_sc_hd__nand2b_1 A_N B VGND VNB VPB VPWR Y
.ends

* Black-box entry subcircuit for sky130_fd_sc_hd__nand3b_4 abstract view
.subckt sky130_fd_sc_hd__nand3b_4 A_N B C VGND VNB VPB VPWR Y
.ends

* Black-box entry subcircuit for sky130_fd_sc_hd__o211ai_4 abstract view
.subckt sky130_fd_sc_hd__o211ai_4 A1 A2 B1 C1 VGND VNB VPB VPWR Y
.ends

* Black-box entry subcircuit for sky130_fd_sc_hd__o221ai_4 abstract view
.subckt sky130_fd_sc_hd__o221ai_4 A1 A2 B1 B2 C1 VGND VNB VPB VPWR Y
.ends

* Black-box entry subcircuit for sky130_fd_sc_hd__nand3b_1 abstract view
.subckt sky130_fd_sc_hd__nand3b_1 A_N B C VGND VNB VPB VPWR Y
.ends

* Black-box entry subcircuit for sky130_fd_sc_hd__a311o_1 abstract view
.subckt sky130_fd_sc_hd__a311o_1 A1 A2 A3 B1 C1 VGND VNB VPB VPWR X
.ends

* Black-box entry subcircuit for sky130_fd_sc_hd__a22oi_4 abstract view
.subckt sky130_fd_sc_hd__a22oi_4 A1 A2 B1 B2 VGND VNB VPB VPWR Y
.ends

* Black-box entry subcircuit for sky130_fd_sc_hd__and2b_1 abstract view
.subckt sky130_fd_sc_hd__and2b_1 A_N B VGND VNB VPB VPWR X
.ends

* Black-box entry subcircuit for sky130_fd_sc_hd__a31oi_1 abstract view
.subckt sky130_fd_sc_hd__a31oi_1 A1 A2 A3 B1 VGND VNB VPB VPWR Y
.ends

* Black-box entry subcircuit for sky130_fd_sc_hd__nand3_2 abstract view
.subckt sky130_fd_sc_hd__nand3_2 A B C VGND VNB VPB VPWR Y
.ends

* Black-box entry subcircuit for sky130_fd_sc_hd__or3_2 abstract view
.subckt sky130_fd_sc_hd__or3_2 A B C VGND VNB VPB VPWR X
.ends

* Black-box entry subcircuit for sky130_fd_sc_hd__a31oi_4 abstract view
.subckt sky130_fd_sc_hd__a31oi_4 A1 A2 A3 B1 VGND VNB VPB VPWR Y
.ends

* Black-box entry subcircuit for sky130_fd_sc_hd__o22ai_1 abstract view
.subckt sky130_fd_sc_hd__o22ai_1 A1 A2 B1 B2 VGND VNB VPB VPWR Y
.ends

* Black-box entry subcircuit for sky130_fd_sc_hd__or4bb_1 abstract view
.subckt sky130_fd_sc_hd__or4bb_1 A B C_N D_N VGND VNB VPB VPWR X
.ends

* Black-box entry subcircuit for sky130_fd_sc_hd__and3b_1 abstract view
.subckt sky130_fd_sc_hd__and3b_1 A_N B C VGND VNB VPB VPWR X
.ends

* Black-box entry subcircuit for sky130_fd_sc_hd__or4b_1 abstract view
.subckt sky130_fd_sc_hd__or4b_1 A B C D_N VGND VNB VPB VPWR X
.ends

* Black-box entry subcircuit for sky130_fd_sc_hd__nand4b_1 abstract view
.subckt sky130_fd_sc_hd__nand4b_1 A_N B C D VGND VNB VPB VPWR Y
.ends

* Black-box entry subcircuit for sky130_fd_sc_hd__o21ai_4 abstract view
.subckt sky130_fd_sc_hd__o21ai_4 A1 A2 B1 VGND VNB VPB VPWR Y
.ends

* Black-box entry subcircuit for sky130_fd_sc_hd__a221oi_1 abstract view
.subckt sky130_fd_sc_hd__a221oi_1 A1 A2 B1 B2 C1 VGND VNB VPB VPWR Y
.ends

* Black-box entry subcircuit for sky130_fd_sc_hd__o22ai_2 abstract view
.subckt sky130_fd_sc_hd__o22ai_2 A1 A2 B1 B2 VGND VNB VPB VPWR Y
.ends

* Black-box entry subcircuit for sky130_fd_sc_hd__a221oi_4 abstract view
.subckt sky130_fd_sc_hd__a221oi_4 A1 A2 B1 B2 C1 VGND VNB VPB VPWR Y
.ends

* Black-box entry subcircuit for sky130_fd_sc_hd__nand4b_4 abstract view
.subckt sky130_fd_sc_hd__nand4b_4 A_N B C D VGND VNB VPB VPWR Y
.ends

* Black-box entry subcircuit for sky130_fd_sc_hd__o311ai_4 abstract view
.subckt sky130_fd_sc_hd__o311ai_4 A1 A2 A3 B1 C1 VGND VNB VPB VPWR Y
.ends

* Black-box entry subcircuit for sky130_fd_sc_hd__or2_2 abstract view
.subckt sky130_fd_sc_hd__or2_2 A B VGND VNB VPB VPWR X
.ends

* Black-box entry subcircuit for sky130_fd_sc_hd__o311a_1 abstract view
.subckt sky130_fd_sc_hd__o311a_1 A1 A2 A3 B1 C1 VGND VNB VPB VPWR X
.ends

* Black-box entry subcircuit for sky130_fd_sc_hd__a221oi_2 abstract view
.subckt sky130_fd_sc_hd__a221oi_2 A1 A2 B1 B2 C1 VGND VNB VPB VPWR Y
.ends

* Black-box entry subcircuit for sky130_fd_sc_hd__nor3b_2 abstract view
.subckt sky130_fd_sc_hd__nor3b_2 A B C_N VGND VNB VPB VPWR Y
.ends

.subckt add3x64 VGND VPWR clk in1[0] in1[10] in1[11] in1[12] in1[13] in1[14] in1[15]
+ in1[16] in1[17] in1[18] in1[19] in1[1] in1[20] in1[21] in1[22] in1[23] in1[24] in1[25]
+ in1[26] in1[27] in1[28] in1[29] in1[2] in1[30] in1[31] in1[32] in1[33] in1[34] in1[35]
+ in1[36] in1[37] in1[38] in1[39] in1[3] in1[40] in1[41] in1[42] in1[43] in1[44] in1[45]
+ in1[46] in1[47] in1[48] in1[49] in1[4] in1[50] in1[51] in1[52] in1[53] in1[54] in1[55]
+ in1[56] in1[57] in1[58] in1[59] in1[5] in1[60] in1[61] in1[62] in1[63] in1[6] in1[7]
+ in1[8] in1[9] in2[0] in2[10] in2[11] in2[12] in2[13] in2[14] in2[15] in2[16] in2[17]
+ in2[18] in2[19] in2[1] in2[20] in2[21] in2[22] in2[23] in2[24] in2[25] in2[26] in2[27]
+ in2[28] in2[29] in2[2] in2[30] in2[31] in2[32] in2[33] in2[34] in2[35] in2[36] in2[37]
+ in2[38] in2[39] in2[3] in2[40] in2[41] in2[42] in2[43] in2[44] in2[45] in2[46] in2[47]
+ in2[48] in2[49] in2[4] in2[50] in2[51] in2[52] in2[53] in2[54] in2[55] in2[56] in2[57]
+ in2[58] in2[59] in2[5] in2[60] in2[61] in2[62] in2[63] in2[6] in2[7] in2[8] in2[9]
+ in3[0] in3[10] in3[11] in3[12] in3[13] in3[14] in3[15] in3[16] in3[17] in3[18] in3[19]
+ in3[1] in3[20] in3[21] in3[22] in3[23] in3[24] in3[25] in3[26] in3[27] in3[28] in3[29]
+ in3[2] in3[30] in3[31] in3[32] in3[33] in3[34] in3[35] in3[36] in3[37] in3[38] in3[39]
+ in3[3] in3[40] in3[41] in3[42] in3[43] in3[44] in3[45] in3[46] in3[47] in3[48] in3[49]
+ in3[4] in3[50] in3[51] in3[52] in3[53] in3[54] in3[55] in3[56] in3[57] in3[58] in3[59]
+ in3[5] in3[60] in3[61] in3[62] in3[63] in3[6] in3[7] in3[8] in3[9] out[0] out[10]
+ out[11] out[12] out[13] out[14] out[15] out[16] out[17] out[18] out[19] out[1] out[20]
+ out[21] out[22] out[23] out[24] out[25] out[26] out[27] out[28] out[29] out[2] out[30]
+ out[31] out[32] out[33] out[34] out[35] out[36] out[37] out[38] out[39] out[3] out[40]
+ out[41] out[42] out[43] out[44] out[45] out[46] out[47] out[48] out[49] out[4] out[50]
+ out[51] out[52] out[53] out[54] out[55] out[56] out[57] out[58] out[59] out[5] out[60]
+ out[61] out[62] out[63] out[6] out[7] out[8] out[9] rst
XANTENNA__1911__X _0053_ VGND VGND VPWR VPWR sky130_fd_sc_hd__diode_2
XFILLER_36_19 VGND VGND VPWR VPWR sky130_fd_sc_hd__fill_1
XTAP_TAPCELL_ROW_52_437 VGND VPWR sky130_fd_sc_hd__tapvpwrvgnd_1
XPHY_EDGE_ROW_107_Left_246 VGND VGND VPWR VPWR sky130_fd_sc_hd__decap_3
XFILLER_133_54 VGND VGND VPWR VPWR sky130_fd_sc_hd__fill_2
XFILLER_117_55 VGND VGND VPWR VPWR sky130_fd_sc_hd__fill_1
XFILLER_89_166 VGND VGND VPWR VPWR sky130_fd_sc_hd__fill_2
XTAP_TAPCELL_ROW_75_507 VGND VPWR sky130_fd_sc_hd__tapvpwrvgnd_1
XPHY_EDGE_ROW_116_Left_255 VGND VGND VPWR VPWR sky130_fd_sc_hd__decap_3
XTAP_TAPCELL_ROW_110_611 VGND VPWR sky130_fd_sc_hd__tapvpwrvgnd_1
XFILLER_13_111 VGND VGND VPWR VPWR sky130_fd_sc_hd__fill_1
XFILLER_26_41 VPWR VGND VPWR VGND sky130_ef_sc_hd__decap_12
XFILLER_26_85 VGND VGND VPWR VPWR sky130_fd_sc_hd__fill_2
XANTENNA_input127_A in2[8] VGND VGND VPWR VPWR sky130_fd_sc_hd__diode_2
XPHY_EDGE_ROW_125_Left_264 VGND VGND VPWR VPWR sky130_fd_sc_hd__decap_3
XANTENNA_input92_A in2[34] VGND VGND VPWR VPWR sky130_fd_sc_hd__diode_2
XFILLER_54_9 VGND VGND VPWR VPWR sky130_fd_sc_hd__decap_4
XPHY_EDGE_ROW_134_Left_273 VGND VGND VPWR VPWR sky130_fd_sc_hd__decap_3
XFILLER_95_169 VGND VGND VPWR VPWR sky130_fd_sc_hd__decap_4
X_1270_ net78 net14 VGND VGND VPWR VPWR _0556_ sky130_fd_sc_hd__nand2_1
X_1606_ _0855_ _0870_ _0869_ _0846_ VGND VGND VPWR VPWR _0871_ sky130_fd_sc_hd__o22a_1
X_0985_ net68 net4 net132 VGND VGND VPWR VPWR _0279_ sky130_fd_sc_hd__a21o_1
X_1468_ net91 net27 net155 VGND VGND VPWR VPWR _0742_ sky130_fd_sc_hd__nor3_1
X_1537_ _0789_ _0801_ VGND VGND VPWR VPWR _0806_ sky130_fd_sc_hd__nand2_1
X_1399_ _0675_ _0676_ VGND VGND VPWR VPWR _0677_ sky130_fd_sc_hd__nand2_1
XFILLER_103_57 VGND VGND VPWR VPWR sky130_fd_sc_hd__decap_8
XANTENNA__1675__A1 net105 VGND VGND VPWR VPWR sky130_fd_sc_hd__diode_2
XTAP_TAPCELL_ROW_80_521 VGND VPWR sky130_fd_sc_hd__tapvpwrvgnd_1
XFILLER_6_118 VGND VGND VPWR VPWR sky130_fd_sc_hd__decap_4
XFILLER_128_65 VPWR VGND VPWR VGND sky130_ef_sc_hd__decap_12
XFILLER_88_69 VGND VGND VPWR VPWR sky130_fd_sc_hd__fill_1
XFILLER_12_65 VGND VGND VPWR VPWR sky130_fd_sc_hd__fill_1
XFILLER_92_139 VGND VGND VPWR VPWR sky130_fd_sc_hd__fill_1
XFILLER_77_169 VGND VGND VPWR VPWR sky130_fd_sc_hd__decap_3
XFILLER_77_125 VPWR VGND VPWR VGND sky130_ef_sc_hd__decap_12
X_1322_ _0602_ _0600_ _0598_ _0589_ VGND VGND VPWR VPWR _0605_ sky130_fd_sc_hd__a211o_1
X_1253_ _0520_ _0536_ _0538_ VGND VGND VPWR VPWR _0540_ sky130_fd_sc_hd__o21ai_1
X_1184_ _0474_ VGND VGND VPWR VPWR _0475_ sky130_fd_sc_hd__inv_2
XANTENNA__1994__D _0052_ VGND VGND VPWR VPWR sky130_fd_sc_hd__diode_2
Xoutput242 net242 VGND VGND VPWR VPWR out[53] sky130_fd_sc_hd__buf_2
Xoutput253 net253 VGND VGND VPWR VPWR out[63] sky130_fd_sc_hd__buf_2
Xoutput231 net231 VGND VGND VPWR VPWR out[43] sky130_fd_sc_hd__buf_2
XANTENNA__1593__B1 net270 VGND VGND VPWR VPWR sky130_fd_sc_hd__diode_2
Xoutput220 net220 VGND VGND VPWR VPWR out[33] sky130_fd_sc_hd__buf_2
XFILLER_58_17 VGND VGND VPWR VPWR sky130_fd_sc_hd__decap_8
XFILLER_114_67 VPWR VGND VPWR VGND sky130_ef_sc_hd__decap_12
XFILLER_114_12 VGND VGND VPWR VPWR sky130_fd_sc_hd__fill_1
XFILLER_74_139 VGND VGND VPWR VPWR sky130_fd_sc_hd__fill_1
XFILLER_59_125 VGND VGND VPWR VPWR sky130_fd_sc_hd__decap_6
XFILLER_130_77 VGND VGND VPWR VPWR sky130_fd_sc_hd__decap_6
XPHY_EDGE_ROW_137_Right_137 VGND VGND VPWR VPWR sky130_fd_sc_hd__decap_3
XFILLER_136_141 VPWR VGND VPWR VGND sky130_ef_sc_hd__decap_12
XFILLER_135_3 VPWR VGND VPWR VGND sky130_ef_sc_hd__decap_12
XFILLER_99_57 VGND VGND VPWR VPWR sky130_fd_sc_hd__fill_1
XANTENNA_input55_A in1[59] VGND VGND VPWR VPWR sky130_fd_sc_hd__diode_2
XANTENNA__1441__B net26 VGND VGND VPWR VPWR sky130_fd_sc_hd__diode_2
XFILLER_73_161 VGND VGND VPWR VPWR sky130_fd_sc_hd__decap_6
X_1871_ net122 net58 VGND VGND VPWR VPWR _0210_ sky130_fd_sc_hd__nor2_1
XPHY_EDGE_ROW_104_Right_104 VGND VGND VPWR VPWR sky130_fd_sc_hd__decap_3
X_1940_ _0441_ _0301_ net267 VGND VGND VPWR VPWR _0264_ sky130_fd_sc_hd__a21oi_1
XANTENNA__1169__A net264 VGND VGND VPWR VPWR sky130_fd_sc_hd__diode_2
Xclkbuf_3_1_0_clk clknet_0_clk VGND VGND VPWR VPWR clknet_3_1_0_clk sky130_fd_sc_hd__clkbuf_8
XFILLER_56_139 VGND VGND VPWR VPWR sky130_fd_sc_hd__fill_1
XFILLER_56_117 VGND VGND VPWR VPWR sky130_fd_sc_hd__decap_6
X_1305_ net80 net16 _0588_ VGND VGND VPWR VPWR _0589_ sky130_fd_sc_hd__o21ai_1
X_1236_ net75 net11 net139 VGND VGND VPWR VPWR _0524_ sky130_fd_sc_hd__nor3_1
XTAP_TAPCELL_ROW_106_599 VGND VPWR sky130_fd_sc_hd__tapvpwrvgnd_1
X_1167_ _0455_ _0457_ _0459_ VGND VGND VPWR VPWR _0460_ sky130_fd_sc_hd__nand3_1
X_1098_ _0384_ _0390_ _0391_ VGND VGND VPWR VPWR _0392_ sky130_fd_sc_hd__o21a_1
XANTENNA__1566__B1 net163 VGND VGND VPWR VPWR sky130_fd_sc_hd__diode_2
XFILLER_60_29 VPWR VGND VPWR VGND sky130_ef_sc_hd__decap_12
XFILLER_133_111 VGND VGND VPWR VPWR sky130_fd_sc_hd__fill_1
XFILLER_125_33 VPWR VGND VPWR VGND sky130_ef_sc_hd__decap_12
XFILLER_118_185 VGND VGND VPWR VPWR sky130_fd_sc_hd__decap_4
XTAP_TAPCELL_ROW_129_669 VGND VPWR sky130_fd_sc_hd__tapvpwrvgnd_1
XFILLER_62_109 VPWR VGND VPWR VGND sky130_ef_sc_hd__decap_12
XFILLER_55_161 VGND VGND VPWR VPWR sky130_fd_sc_hd__decap_4
XFILLER_18_53 VPWR VGND VPWR VGND sky130_ef_sc_hd__decap_12
XFILLER_18_97 VPWR VGND VPWR VGND sky130_ef_sc_hd__decap_12
XFILLER_70_153 VGND VGND VPWR VPWR sky130_fd_sc_hd__decap_3
XFILLER_34_85 VPWR VGND VPWR VGND sky130_ef_sc_hd__decap_12
XFILLER_109_185 VGND VGND VPWR VPWR sky130_fd_sc_hd__fill_1
XFILLER_75_81 VPWR VGND VPWR VGND sky130_ef_sc_hd__decap_12
X_1021_ net76 net12 net140 VGND VGND VPWR VPWR _0315_ sky130_fd_sc_hd__a21o_2
XTAP_TAPCELL_ROW_29_370 VGND VPWR sky130_fd_sc_hd__tapvpwrvgnd_1
X_1785_ _0127_ _0129_ net179 VGND VGND VPWR VPWR _0130_ sky130_fd_sc_hd__nand3b_2
X_1854_ net121 net57 VGND VGND VPWR VPWR _0194_ sky130_fd_sc_hd__nor2_1
XANTENNA__1548__B1 net266 VGND VGND VPWR VPWR sky130_fd_sc_hd__diode_2
X_1923_ _0382_ _0252_ net264 VGND VGND VPWR VPWR _0253_ sky130_fd_sc_hd__o21a_1
XFILLER_115_111 VGND VGND VPWR VPWR sky130_fd_sc_hd__fill_1
XTAP_TAPCELL_ROW_99_579 VGND VPWR sky130_fd_sc_hd__tapvpwrvgnd_1
XFILLER_111_13 VPWR VGND VPWR VGND sky130_ef_sc_hd__decap_12
XANTENNA__1362__A net265 VGND VGND VPWR VPWR sky130_fd_sc_hd__diode_2
XFILLER_55_29 VPWR VGND VPWR VGND sky130_ef_sc_hd__decap_12
X_1219_ _0506_ _0507_ _0508_ VGND VGND VPWR VPWR _0004_ sky130_fd_sc_hd__o21a_1
XFILLER_37_172 VPWR VGND VPWR VGND sky130_ef_sc_hd__decap_12
XTAP_TAPCELL_ROW_134_683 VGND VPWR sky130_fd_sc_hd__tapvpwrvgnd_1
XFILLER_111_79 VPWR VGND VPWR VGND sky130_ef_sc_hd__decap_12
XFILLER_111_57 VPWR VGND VPWR VGND sky130_ef_sc_hd__decap_12
XFILLER_52_153 VPWR VGND VPWR VGND sky130_ef_sc_hd__decap_12
XFILLER_20_21 VGND VGND VPWR VPWR sky130_fd_sc_hd__decap_6
XFILLER_20_65 VPWR VGND VPWR VGND sky130_ef_sc_hd__decap_12
XFILLER_121_169 VGND VGND VPWR VPWR sky130_fd_sc_hd__decap_4
XANTENNA_input157_A in3[35] VGND VGND VPWR VPWR sky130_fd_sc_hd__diode_2
XFILLER_29_52 VGND VGND VPWR VPWR sky130_fd_sc_hd__decap_4
XANTENNA_input18_A in1[25] VGND VGND VPWR VPWR sky130_fd_sc_hd__diode_2
XFILLER_45_95 VPWR VGND VPWR VGND sky130_ef_sc_hd__decap_12
X_1570_ _0832_ _0834_ _0819_ VGND VGND VPWR VPWR _0837_ sky130_fd_sc_hd__a21oi_2
XFILLER_112_169 VGND VGND VPWR VPWR sky130_fd_sc_hd__fill_1
XANTENNA__1702__B1 net269 VGND VGND VPWR VPWR sky130_fd_sc_hd__diode_2
XTAP_TAPCELL_ROW_108_606 VGND VPWR sky130_fd_sc_hd__tapvpwrvgnd_1
XFILLER_13_3 VPWR VGND VPWR VGND sky130_ef_sc_hd__decap_12
XFILLER_19_161 VGND VGND VPWR VPWR sky130_fd_sc_hd__decap_6
XTAP_TAPCELL_ROW_131_675 VGND VPWR sky130_fd_sc_hd__tapvpwrvgnd_1
X_1004_ _0277_ _0278_ _0295_ VGND VGND VPWR VPWR _0298_ sky130_fd_sc_hd__o21ai_1
XANTENNA__1909__X _0052_ VGND VGND VPWR VPWR sky130_fd_sc_hd__diode_2
XFILLER_34_153 VGND VGND VPWR VPWR sky130_fd_sc_hd__decap_4
XFILLER_34_164 VGND VGND VPWR VPWR sky130_fd_sc_hd__decap_3
X_1768_ net114 net50 VGND VGND VPWR VPWR _0114_ sky130_fd_sc_hd__and2_1
X_1837_ _0158_ _0161_ _0162_ _0144_ VGND VGND VPWR VPWR _0179_ sky130_fd_sc_hd__a31o_1
XTAP_TAPCELL_ROW_9_308 VGND VPWR sky130_fd_sc_hd__tapvpwrvgnd_1
X_1906_ net65 net1 net129 net264 VGND VGND VPWR VPWR _0242_ sky130_fd_sc_hd__o31ai_1
XFILLER_103_169 VGND VGND VPWR VPWR sky130_fd_sc_hd__decap_4
XFILLER_103_125 VPWR VGND VPWR VGND sky130_ef_sc_hd__decap_12
X_1699_ _0737_ _0735_ _0957_ VGND VGND VPWR VPWR _0958_ sky130_fd_sc_hd__a21boi_2
Xmax_cap263 _0462_ VGND VGND VPWR VPWR net263 sky130_fd_sc_hd__clkbuf_1
XTAP_TAPCELL_ROW_55_446 VGND VPWR sky130_fd_sc_hd__tapvpwrvgnd_1
XFILLER_31_31 VGND VGND VPWR VPWR sky130_fd_sc_hd__fill_1
XFILLER_31_53 VGND VGND VPWR VPWR sky130_fd_sc_hd__decap_3
Xinput186 in3[61] VGND VGND VPWR VPWR net186 sky130_fd_sc_hd__clkbuf_1
Xinput175 in3[51] VGND VGND VPWR VPWR net175 sky130_fd_sc_hd__clkbuf_1
Xinput164 in3[41] VGND VGND VPWR VPWR net164 sky130_fd_sc_hd__clkbuf_1
XTAP_TAPCELL_ROW_78_516 VGND VPWR sky130_fd_sc_hd__tapvpwrvgnd_1
Xinput153 in3[31] VGND VGND VPWR VPWR net153 sky130_fd_sc_hd__clkbuf_1
Xinput142 in3[21] VGND VGND VPWR VPWR net142 sky130_fd_sc_hd__clkbuf_1
Xinput131 in3[11] VGND VGND VPWR VPWR net131 sky130_fd_sc_hd__buf_1
Xinput120 in2[5] VGND VGND VPWR VPWR net120 sky130_fd_sc_hd__clkbuf_2
XTAP_TAPCELL_ROW_113_620 VGND VPWR sky130_fd_sc_hd__tapvpwrvgnd_1
XFILLER_31_167 VGND VGND VPWR VPWR sky130_fd_sc_hd__fill_1
X_1622_ _0867_ _0871_ _0884_ _0866_ VGND VGND VPWR VPWR _0886_ sky130_fd_sc_hd__o211ai_1
XANTENNA__1624__B net39 VGND VGND VPWR VPWR sky130_fd_sc_hd__diode_2
XFILLER_98_167 VGND VGND VPWR VPWR sky130_fd_sc_hd__decap_4
XFILLER_98_112 VPWR VGND VPWR VGND sky130_ef_sc_hd__decap_12
X_1553_ net97 net33 net161 VGND VGND VPWR VPWR _0821_ sky130_fd_sc_hd__o21a_1
X_1484_ net92 net28 _0755_ VGND VGND VPWR VPWR _0757_ sky130_fd_sc_hd__a21o_1
XANTENNA__1923__B1 net264 VGND VGND VPWR VPWR sky130_fd_sc_hd__diode_2
XTAP_TAPCELL_ROW_52_438 VGND VPWR sky130_fd_sc_hd__tapvpwrvgnd_1
XFILLER_22_167 VGND VGND VPWR VPWR sky130_fd_sc_hd__decap_8
XFILLER_93_26 VPWR VGND VPWR VGND sky130_ef_sc_hd__decap_12
XTAP_TAPCELL_ROW_75_508 VGND VPWR sky130_fd_sc_hd__tapvpwrvgnd_1
XTAP_TAPCELL_ROW_110_612 VGND VPWR sky130_fd_sc_hd__tapvpwrvgnd_1
XANTENNA__1445__A2 net26 VGND VGND VPWR VPWR sky130_fd_sc_hd__diode_2
XTAP_TAPCELL_ROW_83_530 VGND VPWR sky130_fd_sc_hd__tapvpwrvgnd_1
XFILLER_13_156 VGND VGND VPWR VPWR sky130_fd_sc_hd__decap_8
XFILLER_26_53 VPWR VGND VPWR VGND sky130_ef_sc_hd__decap_12
XANTENNA_input85_A in2[28] VGND VGND VPWR VPWR sky130_fd_sc_hd__diode_2
XFILLER_13_189 VGND VGND VPWR VPWR sky130_fd_sc_hd__fill_1
XFILLER_42_41 VGND VGND VPWR VPWR sky130_fd_sc_hd__decap_6
XFILLER_42_85 VGND VGND VPWR VPWR sky130_fd_sc_hd__fill_2
XANTENNA_input40_X net40 VGND VGND VPWR VPWR sky130_fd_sc_hd__diode_2
XFILLER_3_57 VPWR VGND VPWR VGND sky130_ef_sc_hd__decap_12
XFILLER_83_81 VPWR VGND VPWR VGND sky130_ef_sc_hd__decap_12
X_0984_ net68 net4 net132 VGND VGND VPWR VPWR _0278_ sky130_fd_sc_hd__a21oi_1
X_1605_ _0836_ _0856_ VGND VGND VPWR VPWR _0870_ sky130_fd_sc_hd__nor2_1
X_1536_ _0788_ _0789_ _0800_ _0801_ VGND VGND VPWR VPWR _0805_ sky130_fd_sc_hd__nand4_1
XANTENNA__1675__A2 net41 VGND VGND VPWR VPWR sky130_fd_sc_hd__diode_2
X_1467_ _0725_ _0738_ _0741_ VGND VGND VPWR VPWR _0019_ sky130_fd_sc_hd__a21oi_1
X_1398_ net86 net22 net150 VGND VGND VPWR VPWR _0676_ sky130_fd_sc_hd__o21ai_2
XPHY_EDGE_ROW_118_Right_118 VGND VGND VPWR VPWR sky130_fd_sc_hd__decap_3
XTAP_TAPCELL_ROW_80_522 VGND VPWR sky130_fd_sc_hd__tapvpwrvgnd_1
XANTENNA__1427__A2 net25 VGND VGND VPWR VPWR sky130_fd_sc_hd__diode_2
XFILLER_128_33 VGND VGND VPWR VPWR sky130_fd_sc_hd__fill_1
XFILLER_12_55 VGND VGND VPWR VPWR sky130_fd_sc_hd__decap_4
XFILLER_128_77 VGND VGND VPWR VPWR sky130_fd_sc_hd__decap_6
XFILLER_77_137 VPWR VGND VPWR VGND sky130_ef_sc_hd__decap_12
XFILLER_92_107 VPWR VGND VPWR VGND sky130_ef_sc_hd__decap_12
XFILLER_85_181 VGND VGND VPWR VPWR sky130_fd_sc_hd__decap_3
XANTENNA__1991__CLK clknet_3_7_0_clk VGND VGND VPWR VPWR sky130_fd_sc_hd__diode_2
XFILLER_78_81 VGND VGND VPWR VPWR sky130_fd_sc_hd__decap_3
X_1321_ _0583_ _0587_ _0598_ _0602_ _0600_ VGND VGND VPWR VPWR _0604_ sky130_fd_sc_hd__o221ai_2
X_1252_ _0520_ _0536_ _0538_ VGND VGND VPWR VPWR _0539_ sky130_fd_sc_hd__o21a_1
X_1183_ net72 net8 net136 VGND VGND VPWR VPWR _0474_ sky130_fd_sc_hd__nor3_1
Xoutput243 net243 VGND VGND VPWR VPWR out[54] sky130_fd_sc_hd__buf_2
Xoutput232 net232 VGND VGND VPWR VPWR out[44] sky130_fd_sc_hd__buf_2
Xoutput221 net221 VGND VGND VPWR VPWR out[34] sky130_fd_sc_hd__buf_2
X_1519_ _0788_ _0789_ VGND VGND VPWR VPWR _0790_ sky130_fd_sc_hd__and2_1
XFILLER_58_29 VPWR VGND VPWR VGND sky130_ef_sc_hd__decap_12
Xoutput210 net210 VGND VGND VPWR VPWR out[24] sky130_fd_sc_hd__buf_2
XPHY_EDGE_ROW_12_Right_12 VGND VGND VPWR VPWR sky130_fd_sc_hd__decap_3
Xoutput254 net254 VGND VGND VPWR VPWR out[6] sky130_fd_sc_hd__buf_2
XFILLER_114_79 VGND VGND VPWR VPWR sky130_fd_sc_hd__decap_4
XPHY_EDGE_ROW_21_Right_21 VGND VGND VPWR VPWR sky130_fd_sc_hd__decap_3
XFILLER_128_109 VPWR VGND VPWR VGND sky130_ef_sc_hd__decap_12
XFILLER_82_173 VGND VGND VPWR VPWR sky130_fd_sc_hd__fill_2
XFILLER_136_153 VGND VGND VPWR VPWR sky130_fd_sc_hd__decap_4
XANTENNA_input187_A in3[62] VGND VGND VPWR VPWR sky130_fd_sc_hd__diode_2
XFILLER_99_14 VGND VGND VPWR VPWR sky130_fd_sc_hd__decap_8
XFILLER_2_122 VGND VGND VPWR VPWR sky130_fd_sc_hd__fill_1
XPHY_EDGE_ROW_30_Right_30 VGND VGND VPWR VPWR sky130_fd_sc_hd__decap_3